
  EPA STORM WATER MANAGEMENT MODEL - VERSION 5.2 (Build 5.2.4)
  PYSWMM TOOLKIT API - VERSION v1.0 (2023-11-27)
  ------------------------------------------------------------

  WARNING 04: minimum elevation drop used for Conduit geldrop_out_east
  WARNING 04: minimum elevation drop used for Conduit eindhoven_out
  
  ****************
  Analysis Options
  ****************
  Flow Units ............... CMS
  Process Models:
    Rainfall/Runoff ........ YES
    RDII ................... NO
    Snowmelt ............... NO
    Groundwater ............ NO
    Flow Routing ........... YES
    Ponding Allowed ........ NO
    Water Quality .......... NO
  Infiltration Method ...... HORTON
  Flow Routing Method ...... DYNWAVE
  Surcharge Method ......... EXTRAN
  Starting Date ............ 09/01/2024 00:00:00
  Ending Date .............. 09/30/2024 00:00:00
  Antecedent Dry Days ...... 0.0
  Report Time Step ......... 00:05:00
  Wet Time Step ............ 00:01:00
  Dry Time Step ............ 00:10:00
  Routing Time Step ........ 5.00 sec
  Variable Time Step ....... YES
  Maximum Trials ........... 12
  Number of Threads ........ 2
  Head Tolerance ........... 0.000200 m
  
  
  *********************
  Rainfall File Summary
  *********************
  Station    First        Last         Recording   Periods    Periods    Periods
  ID         Date         Date         Frequency  w/Precip    Missing    Malfunc.
  -------------------------------------------------------------------------------
  ES         09/01/2024   09/30/2024       5 min      8640          0          0

  GE         09/01/2024   09/30/2024       5 min      8640          0          0

  RZ1        09/01/2024   09/30/2024       5 min      8640          0          0

  RZ2        09/01/2024   09/30/2024       5 min      8640          0          0

  
  
  **************************        Volume         Depth
  Runoff Quantity Continuity     hectare-m            mm
  **************************     ---------       -------
  Total Precipitation ......       324.255        76.863
  Evaporation Loss .........       115.849        27.461
  Infiltration Loss ........       130.259        30.877
  Surface Runoff ...........        78.275        18.555
  Final Storage ............         0.000         0.000
  Continuity Error (%) .....        -0.040
  
  
  **************************        Volume        Volume
  Flow Routing Continuity        hectare-m      10^6 ltr
  **************************     ---------     ---------
  Dry Weather Inflow .......       265.762      2657.651
  Wet Weather Inflow .......        78.281       782.820
  Groundwater Inflow .......         0.000         0.000
  RDII Inflow ..............         0.000         0.000
  External Inflow ..........         0.000         0.000
  External Outflow .........       217.083      2170.848
  Flooding Loss ............         0.000         0.001
  Evaporation Loss .........         0.013         0.131
  Exfiltration Loss ........         0.000         0.000
  Initial Stored Volume ....         0.806         8.057
  Final Stored Volume ......       127.900      1279.011
  Continuity Error (%) .....        -0.042
  
  
  *************************
  Highest Continuity Errors
  *************************
  Node Nod_A*HLCMRZ1135 (9.59%)
  Node Nod_890 (4.78%)
  Node Nod_891 (4.70%)
  
  
  ***************************
  Time-Step Critical Elements
  ***************************
  Link Con_161 (99.57%)
  
  
  ********************************
  Highest Flow Instability Indexes
  ********************************
  Link c_143_d_70 (9)
  Link P_c_128_d_64 (6)
  Link P_c_136_d_28 (5)
  Link c_107_d_36 (4)
  Link c_138_d_22 (3)
  
  
  *********************************
  Most Frequent Nonconverging Nodes
  *********************************
  Node cso_Geldrop (0.03%)
  Node cso_gb_136 (0.03%)
  Node cso_RZ (0.03%)
  Node cso_ES_2 (0.03%)
  Node cso_ES_1 (0.03%)
  
  
  *************************
  Routing Time Step Summary
  *************************
  Minimum Time Step           :     0.00 sec
  Average Time Step           :     1.07 sec
  Maximum Time Step           :     5.00 sec
  % of Time in Steady State   :     0.00
  Average Iterations per Step :     2.01
  % of Steps Not Converging   :     0.03
  Time Step Frequencies       :
      5.000 -  3.155 sec      :     0.52 %
      3.155 -  1.991 sec      :     0.21 %
      1.991 -  1.256 sec      :     3.65 %
      1.256 -  0.792 sec      :    90.57 %
      0.792 -  0.500 sec      :     5.06 %
  
  
  ***************************
  Subcatchment Runoff Summary
  ***************************
  
  ------------------------------------------------------------------------------------------------------------------------------
                            Total      Total      Total      Total     Imperv       Perv      Total       Total     Peak  Runoff
                           Precip      Runon       Evap      Infil     Runoff     Runoff     Runoff      Runoff   Runoff   Coeff
  Subcatchment                 mm         mm         mm         mm         mm         mm         mm    10^6 ltr      CMS
  ------------------------------------------------------------------------------------------------------------------------------
  c_24_catchment            75.16       0.00      32.52      29.05      13.32       0.29      13.61      261.22     1.49   0.181
  c_23_catchment            75.16       0.00      20.17      19.25      22.47      13.30      35.77        1.07     0.03   0.476
  c_22_catchment            75.16       0.00      19.61      18.23      22.69      14.68      37.37        0.60     0.02   0.497
  c_21_catchment            75.16       0.00      20.24      19.37      22.45      13.14      35.59        1.14     0.04   0.474
  c_12_catchment            75.16       0.00      20.38      19.64      22.39      12.79      35.18        1.30     0.04   0.468
  c_20_catchment            75.16       0.00      21.59      21.76      21.86       9.98      31.84        3.18     0.07   0.424
  c_19_catchment            75.16       0.00      20.30      19.48      22.42      12.99      35.42        1.20     0.04   0.471
  c_10_catchment            75.16       0.00      20.91      20.93      22.14      11.21      33.35        2.07     0.06   0.444
  c_16_catchment            75.16       0.00      23.14      24.11      21.07       6.87      27.94        7.38     0.14   0.372
  c_15_catchment            75.16       0.00      23.60      24.69      20.81       6.10      26.90        9.12     0.17   0.358
  c_14_catchment            75.16       0.00      23.69      24.81      20.75       5.95      26.70        9.51     0.17   0.355
  c_129_catchment           81.06       0.00      20.56      19.55      25.26      15.73      40.99        2.05     0.08   0.506
  c_128_catchment           81.06       0.00      28.53      29.73      20.47       2.36      22.84       58.25     0.73   0.282
  c_1285_catchment          81.06       0.00      20.76      19.91      25.18      15.25      40.43        2.34     0.09   0.499
  c_127_catchment           81.06       0.00      27.06      28.60      21.60       3.84      25.44       34.31     0.56   0.314
  c_126_catchment           81.06       0.00      22.35      22.69      24.45      11.61      36.06        5.70     0.16   0.445
  c_125_catchment           81.06       0.00      20.64      19.69      25.23      15.54      40.77        2.16     0.08   0.503
  c_124_catchment           81.06       0.00      18.91      16.46      25.92      19.82      45.74        0.46     0.02   0.564
  c_136_catchment           81.06       0.00      24.77      26.15      23.09       7.08      30.17       15.24     0.32   0.372
  c_135_catchment           81.06       0.00      22.97      23.67      24.13      10.33      34.45        7.58     0.20   0.425
  c_131_catchment           81.06       0.00      22.93      23.60      24.15      10.42      34.57        7.43     0.19   0.426
  c_130_catchment           81.06       0.00      20.25      18.96      25.39      16.50      41.89        1.63     0.07   0.517
  c_134_catchment           81.06       0.00      20.64      19.69      25.23      15.54      40.77        2.16     0.08   0.503
  c_132_catchment           81.06       0.00      20.25      18.96      25.39      16.50      41.89        1.63     0.07   0.517
  c_150_catchment           77.63       0.00      22.74      34.85      19.68       0.39      20.07       41.15     0.43   0.259
  c_123_catchment           77.63       0.00      21.60      34.62      20.74       0.70      21.44       21.76     0.31   0.276
  c_143_catchment           77.63       0.00      23.44      34.94      19.01       0.27      19.28       59.39     0.54   0.248
  c_147_catchment           77.63       0.00      17.73      32.01      23.71       4.22      27.93        1.20     0.05   0.360
  c_160_catchment           77.63       0.00      17.86      32.18      23.64       4.00      27.63        1.38     0.05   0.356
  c_145_catchment           77.63       0.00      16.66      30.59      24.29       6.15      30.44        0.30     0.02   0.392
  c_144_catchment           77.63       0.00      19.48      33.71      22.58       1.89      24.47        5.58     0.12   0.315
  c_142_catchment           77.63       0.00      21.19      34.50      21.11       0.87      21.98       16.88     0.26   0.283
  c_148_catchment           77.63       0.00      18.67      33.04      23.16       2.79      25.95        2.91     0.08   0.334
  c_149_catchment           77.63       0.00      19.22      33.54      22.78       2.13      24.91        4.56     0.11   0.321
  c_151_catchment           77.63       0.00      19.80      33.91      22.32       1.64      23.96        7.05     0.15   0.309
  c_161_catchment           77.63       0.00      21.01      34.43      21.27       0.95      22.22       15.11     0.24   0.286
  c_138_catchment           77.63       0.00      19.77      33.89      22.34       1.66      24.00        6.94     0.14   0.309
  c_139_catchment           77.63       0.00      17.79      32.09      23.68       4.12      27.80        1.28     0.05   0.358
  c_137_catchment           77.63       0.00      16.66      30.59      24.29       6.15      30.44        0.30     0.02   0.392
  c_122_catchment           77.63       0.00      20.59      34.29      21.64       1.14      22.79       11.89     0.21   0.294
  c_121_catchment           77.63       0.00      18.59      32.95      23.22       2.91      26.13        2.69     0.08   0.337
  c_120_catchment           77.63       0.00      17.84      32.16      23.65       4.03      27.67        1.36     0.05   0.356
  c_119_catchment           77.63       0.00      23.88      34.98      18.58       0.22      18.80       73.88     0.63   0.242
  c_100_catchment           77.63       0.00      18.16      32.48      23.48       3.55      27.02        1.81     0.06   0.348
  c_118_catchment           77.63       0.00      18.68      33.05      23.15       2.78      25.93        2.93     0.08   0.334
  c_116_catchment           77.63       0.00      18.82      33.19      23.06       2.59      25.65        3.31     0.09   0.330
  c_114_catchment           77.63       0.00      18.07      32.39      23.53       3.69      27.22        1.66     0.06   0.351
  c_112_catchment           77.63       0.00      19.76      33.88      22.36       1.67      24.02        6.85     0.14   0.309
  c_107_catchment           77.63       0.00      21.20      34.50      21.10       0.86      21.97       16.96     0.27   0.283
  c_107_2_catchment         77.63       0.00      18.45      32.80      23.30       3.11      26.41        2.38     0.07   0.340
  c_106_catchment           77.63       0.00      18.67      33.04      23.16       2.79      25.95        2.91     0.08   0.334
  c_99_catchment            77.63       0.00      21.63      34.63      20.71       0.69      21.40       22.19     0.32   0.276
  c_103_catchment           77.63       0.00      17.63      31.87      23.77       4.40      28.17        1.07     0.04   0.363
  c_98_catchment            77.63       0.00      19.65      33.82      22.44       1.75      24.19        6.34     0.13   0.312
  
  
  ******************
  Node Depth Summary
  ******************
  
  ---------------------------------------------------------------------------------
                                 Average  Maximum  Maximum  Time of Max    Reported
                                   Depth    Depth      HGL   Occurrence   Max Depth
  Node                 Type       Meters   Meters   Meters  days hr:min      Meters
  ---------------------------------------------------------------------------------
  Nod_100              JUNCTION     0.64     2.97    17.45    10  03:53        1.45
  Mierlo_2             JUNCTION     0.03     3.04    19.34    10  01:43        1.57
  Nod_890              JUNCTION     0.54     1.10    14.03    10  04:11        1.10
  Nod_891              JUNCTION     0.47     1.03    14.03    10  04:11        1.03
  Nod_892              JUNCTION     0.41     0.97    14.03    10  04:11        0.97
  Nod_A*HLCMRZ1135     JUNCTION     0.63     1.19    14.03    10  04:10        1.19
  Nod_103              JUNCTION     0.46     0.99    14.96    25  02:16        0.99
  Nod_104              JUNCTION     0.36     0.81    14.59    10  03:38        0.81
  Nod_105              JUNCTION     0.37     0.82    14.58    10  03:38        0.82
  Nod_106              JUNCTION     0.45     0.89    14.46    10  03:49        0.89
  Nod_107              JUNCTION     0.45     0.88    14.43    10  03:53        0.88
  Nod_108              JUNCTION     0.80     0.99    12.19    10  03:56        0.99
  Nod_109              JUNCTION     0.14     0.50    12.02     0  00:00        0.36
  Nod_110              JUNCTION     0.41     0.93    14.47    10  03:51        0.93
  Nod_111              JUNCTION     0.38     0.87    14.34    10  03:56        0.87
  Nod_112              JUNCTION     0.63     1.19    14.03    10  04:11        1.19
  Nod_113              JUNCTION     0.66     1.21    14.01    10  04:11        1.21
  Nod_114              JUNCTION     0.41     1.06    13.83    10  04:16        1.06
  Nod_115              JUNCTION     0.42     1.07    13.77    10  04:17        1.07
  Nod_116              JUNCTION     0.41     1.07    13.74    10  04:17        1.07
  Nod_117              JUNCTION     0.43     1.15    13.42    10  04:25        1.14
  Nod_118              JUNCTION     0.49     1.36    13.27    10  03:34        1.36
  Nod_119              JUNCTION     0.15     0.40    11.84    10  04:24        0.40
  Nod_120              JUNCTION     0.14     0.43    11.80    10  04:30        0.43
  Nod_121              JUNCTION     0.18     0.52    11.78    10  04:35        0.52
  Nod_122              JUNCTION     0.28     0.62    11.76    10  04:33        0.62
  Nod_123              JUNCTION     0.33     0.67    11.76    10  04:35        0.67
  Nod_124              JUNCTION     0.15     0.33    11.34    10  04:36        0.33
  Nod_126              JUNCTION     0.53     1.27    18.44    10  07:44        1.27
  Nod_127              JUNCTION     0.73     1.42    19.43    10  02:16        1.42
  Nod_128              JUNCTION     0.31     0.82    18.54    10  07:47        0.82
  Nod_129              JUNCTION     0.49     0.91    16.55    10  08:15        0.91
  Nod_130              JUNCTION     0.30     0.79    15.85    10  03:22        0.79
  Nod_131              JUNCTION     0.44     1.10    15.64    10  03:28        1.10
  Nod_132              JUNCTION     0.44     1.10    15.43    10  03:32        1.10
  Nod_133              JUNCTION     0.45     1.11    15.39    10  03:33        1.11
  Nod_134              JUNCTION     0.48     1.12    15.22    10  03:36        1.12
  Nod_135              JUNCTION     0.50     1.13    15.18    10  03:36        1.13
  Nod_136              JUNCTION     0.55     1.14    15.07    10  03:38        1.14
  Nod_222              JUNCTION     1.22     2.10    13.30    10  03:18        2.09
  Nod_233              JUNCTION     0.52     1.20    12.72    10  04:29        1.20
  Nod_244              JUNCTION     0.51     1.16    12.60    10  04:30        1.16
  Nod_266              JUNCTION     0.47     1.06    12.43    10  04:31        1.06
  Nod_277              JUNCTION     0.44     0.97    12.23    10  04:35        0.97
  cso_Geldrop          OUTFALL      0.00     0.00     4.62     0  00:00        0.00
  cso_gb_136           OUTFALL      0.00     0.00     1.00     0  00:00        0.00
  cso_RZ               OUTFALL      0.00     0.00    16.07     0  00:00        0.00
  cso_ES_2             OUTFALL      0.00     0.00     8.00     0  00:00        0.00
  cso_ES_1             OUTFALL      0.00     0.00     1.25     0  00:00        0.00
  cso_AALST            OUTFALL      0.00     0.00     0.00     0  00:00        0.00
  out_ES               OUTFALL      0.00     0.00     0.00     0  00:00        0.00
  out_RZ               OUTFALL      0.00     0.00     0.00     0  00:00        0.00
  c_24_vr_storage_175  STORAGE      0.58     1.20     1.20    29  00:00        1.20
  c_23_vr_storage_7    STORAGE      0.00     0.00     0.00     0  00:00        0.00
  c_22_vr_storage_5    STORAGE      0.00     0.00     0.00     0  00:00        0.00
  c_21_vr_storage_7    STORAGE      0.00     0.00     0.00     0  00:00        0.00
  c_12_vr_storage_8    STORAGE      0.00     0.00     0.00     0  00:00        0.00
  c_20_vr_storage_13   STORAGE      0.00     0.00     0.00     0  00:00        0.00
  c_19_vr_storage_7    STORAGE      0.00     0.00     0.00     0  00:00        0.00
  c_10_vr_storage_10   STORAGE      0.00     0.00     0.00     0  00:00        0.00
  c_16_vr_storage_20   STORAGE      0.00     0.00     0.00     0  00:00        0.00
  c_15_vr_storage_24   STORAGE      0.00     0.00     0.00     0  00:00        0.00
  c_14_vr_storage_24   STORAGE      0.00     0.00     0.00     0  00:00        0.00
  pipe_ES              STORAGE      0.10     0.16    10.16    27  15:25        0.16
  pipe_Geldrop         STORAGE      0.23     0.89    15.95    25  02:00        0.89
  gb_136               STORAGE      0.06     1.30    17.75    25  18:25        1.30
  c_129_vr_storage_2   STORAGE      0.00     0.00     0.00     0  00:00        0.00
  c_128_vr_storage_64  STORAGE      0.00     0.00     0.00    25  18:00        0.00
  c_1285_vr_storage_10 STORAGE      0.00     0.00     0.00     0  00:00        0.00
  c_127_vr_storage_46  STORAGE      0.00     0.00     0.00     2  18:45        0.00
  c_126_vr_storage_16  STORAGE      0.00     0.00     0.00     2  18:45        0.00
  c_125_vr_storage_8   STORAGE      0.00     0.00     0.00     0  00:00        0.00
  c_124_storage        STORAGE      0.02     0.03    14.25    29  00:00        0.03
  c_136_vr_storage_28  STORAGE      0.00     0.00     0.00     2  18:45        0.00
  c_135_vr_storage_18  STORAGE      0.00     0.00     0.00     0  00:00        0.00
  c_131_vr_storage_18  STORAGE      0.00     0.00     0.00     2  18:41        0.00
  c_130_vr_storage_8   STORAGE      0.00     0.00     0.00     0  00:00        0.00
  c_134_vr_storage_8   STORAGE      0.00     0.00     0.00     0  00:00        0.00
  c_132_vr_storage_8   STORAGE      0.00     0.00     0.00     0  00:00        0.00
  Aalst_gemaal         STORAGE      0.28     0.73     0.73    10  02:54        0.73
  Mierlo_1             STORAGE      0.02     3.80    18.60    25  17:50        3.14
  pre_ontvangstkelder  STORAGE      0.11     2.03    10.03    10  04:40        2.03
  Eindhoven            STORAGE      0.00     0.00    10.00     0  00:00        0.00
  c_150_vr_storage_57  STORAGE      0.00     0.00     0.00     0  00:00        0.00
  c_123_vr_storage_40  STORAGE      0.00     0.00     0.00     0  00:00        0.00
  c_143_vr_storage_70  STORAGE      0.00     0.00     0.00    24  22:58        0.00
  c_147_vr_storage_4   STORAGE      0.00     0.00     0.00     0  00:00        0.00
  c_160_vr_storage_8   STORAGE      0.00     0.00     0.00     0  00:00        0.00
  c_145_vr_storage_4   STORAGE      0.00     0.00     0.00     0  00:00        0.00
  c_144_vr_storage_19  STORAGE      0.00     0.00     0.00     0  00:00        0.00
  c_142_vr_storage_35  STORAGE      0.00     0.00     0.00     0  00:00        0.00
  c_148_vr_storage_12  STORAGE      0.00     0.00     0.00     0  00:00        0.00
  c_149_vr_storage_17  STORAGE      0.00     0.00     0.00     0  00:00        0.00
  c_151_vr_storage_22  STORAGE      0.00     0.00     0.00     0  00:00        0.00
  c_161_vr_storage_32  STORAGE      0.00     0.00     0.00     0  00:00        0.00
  c_138_vr_storage_22  STORAGE      0.00     0.00     0.00    24  22:34        0.00
  c_139_vr_storage_8   STORAGE      0.00     0.00     0.00     0  00:00        0.00
  c_137_vr_storage_4   STORAGE      0.00     0.00     0.00     0  00:00        0.00
  c_122_vr_storage_29  STORAGE      0.00     0.00     0.00     0  00:00        0.00
  c_121_vr_storage_12  STORAGE      0.00     0.00     0.00    24  22:34        0.00
  c_120_vr_storage_8   STORAGE      0.00     0.00     0.00     0  00:00        0.00
  c_119_vr_storage_80  STORAGE      0.00     0.00     0.00    24  22:34        0.00
  c_100_vr_storage_10  STORAGE      0.00     0.00     0.00     0  00:00        0.00
  c_118_vr_storage_13  STORAGE      0.00     0.00     0.00     0  00:00        0.00
  c_116_vr_storage_15  STORAGE      0.00     0.00     0.00    24  22:34        0.00
  c_114_vr_storage_10  STORAGE      0.00     0.00     0.00     0  00:00        0.00
  c_112_vr_storage_21  STORAGE      0.00     0.00     0.00     0  00:00        0.00
  c_107_vr_storage_36  STORAGE      0.00     0.00     0.00    24  22:34        0.00
  c_107_2_vr_storage_12 STORAGE      0.00     0.00     0.00     0  00:00        0.00
  c_106_vr_storage_13  STORAGE      0.00     0.00     0.00     0  00:00        0.00
  c_99_vr_storage_41   STORAGE      0.00     0.00     0.00    24  22:34        0.00
  c_103_vr_storage_8   STORAGE      0.00     0.00     0.00     0  00:00        0.00
  c_98_vr_storage_20   STORAGE      0.00     0.00     0.00     0  00:00        0.00
  
  
  *******************
  Node Inflow Summary
  *******************
  
  -------------------------------------------------------------------------------------------------
                                  Maximum  Maximum                  Lateral       Total        Flow
                                  Lateral    Total  Time of Max      Inflow      Inflow     Balance
                                   Inflow   Inflow   Occurrence      Volume      Volume       Error
  Node                 Type           CMS      CMS  days hr:min    10^6 ltr    10^6 ltr     Percent
  -------------------------------------------------------------------------------------------------
  Nod_100              JUNCTION     0.000    0.656    10  03:53           0         369       0.000
  Mierlo_2             JUNCTION     0.000    0.789    25  17:46           0         118      -0.041
  Nod_890              JUNCTION     0.000    0.370     0  00:16           0        5.51       5.025
  Nod_891              JUNCTION     0.000    0.258     0  00:19           0        2.95       4.931
  Nod_892              JUNCTION     0.000    0.148     0  00:02           0        1.35       4.802
  Nod_A*HLCMRZ1135     JUNCTION     0.000    0.315     0  00:00           0       0.438      10.613
  Nod_103              JUNCTION     0.000    0.570    25  02:00           0         368       0.069
  Nod_104              JUNCTION     0.000    0.568    25  02:10           0         371       0.011
  Nod_105              JUNCTION     0.000    0.520    10  03:05           0         362      -0.006
  Nod_106              JUNCTION     0.000    0.520    10  03:11           0         362       0.000
  Nod_107              JUNCTION     0.000    0.519    10  03:17           0         362      -0.035
  Nod_108              JUNCTION     0.000    0.517    10  03:53           0         362       0.013
  Nod_109              JUNCTION     0.000    0.517    10  03:56           0         362      -0.071
  Nod_110              JUNCTION     0.000    2.534    10  03:38           0     1.8e+03       0.005
  Nod_111              JUNCTION     0.000    2.532    10  03:42           0     1.8e+03       0.020
  Nod_112              JUNCTION     0.000    2.530    10  03:45           0     1.8e+03       0.025
  Nod_113              JUNCTION     0.000    2.518    10  04:01           0     1.8e+03       0.014
  Nod_114              JUNCTION     0.000    2.515    10  04:04           0     1.8e+03       0.001
  Nod_115              JUNCTION     0.000    2.512    10  04:09           0     1.8e+03       0.002
  Nod_116              JUNCTION     0.000    2.511    10  04:09           0     1.8e+03       0.007
  Nod_117              JUNCTION     0.000    2.511    10  04:14           0     1.8e+03       0.022
  Nod_118              JUNCTION     0.000    4.219    25  01:59           0    2.21e+03       0.020
  Nod_119              JUNCTION     0.000    0.982     0  00:01           0         362      -0.003
  Nod_120              JUNCTION     0.000    0.698     0  00:02           0         362      -0.005
  Nod_121              JUNCTION     0.000    0.537     0  00:04           0         362      -0.002
  Nod_122              JUNCTION     0.000    0.515    25  03:23           0         362       0.007
  Nod_123              JUNCTION     0.000    3.008    10  04:35           0    2.16e+03       0.003
  Nod_124              JUNCTION     0.000    3.007    10  04:36           0    2.16e+03       0.000
  Nod_126              JUNCTION     0.000    2.100    10  08:08           0    1.76e+03      -0.009
  Nod_127              JUNCTION     0.000    2.100    10  01:55           0    1.76e+03       0.022
  Nod_128              JUNCTION     0.000    2.105    10  02:24           0    1.76e+03      -0.022
  Nod_129              JUNCTION     0.000    2.100    10  08:00           0    1.76e+03      -0.000
  Nod_130              JUNCTION     0.000    2.541    10  03:10           0     1.8e+03       0.003
  Nod_131              JUNCTION     0.000    2.540    10  03:12           0     1.8e+03       0.007
  Nod_132              JUNCTION     0.000    2.538    10  03:20           0     1.8e+03       0.006
  Nod_133              JUNCTION     0.000    2.537    10  03:25           0     1.8e+03       0.005
  Nod_134              JUNCTION     0.000    2.536    10  03:28           0     1.8e+03       0.007
  Nod_135              JUNCTION     0.000    2.535    10  03:31           0     1.8e+03       0.005
  Nod_136              JUNCTION     0.000    2.535    10  03:33           0     1.8e+03       0.033
  Nod_222              JUNCTION     0.000    5.644    25  02:12           0    2.21e+03       0.003
  Nod_233              JUNCTION     0.000    2.695    10  03:36           0     1.8e+03      -0.015
  Nod_244              JUNCTION     0.000    2.533    10  04:19           0     1.8e+03       0.001
  Nod_266              JUNCTION     0.000    2.524    10  04:27           0     1.8e+03       0.003
  Nod_277              JUNCTION     0.000    2.514    10  04:31           0     1.8e+03       0.004
  cso_Geldrop          OUTFALL      0.000    0.000     0  00:00           0           0       0.000 ltr
  cso_gb_136           OUTFALL      0.000    1.924    25  18:22           0        2.54       0.000
  cso_RZ               OUTFALL      0.000    0.000     0  00:00           0           0       0.000 ltr
  cso_ES_2             OUTFALL      0.000    0.000     0  00:00           0           0       0.000 ltr
  cso_ES_1             OUTFALL      0.000    0.000     0  00:00           0           0       0.000 ltr
  cso_AALST            OUTFALL      0.000    0.000     0  00:00           0           0       0.000 ltr
  out_ES               OUTFALL      0.000    0.008    27  15:25           0        7.51       0.000
  out_RZ               OUTFALL      0.000    3.007    10  04:40           0    2.16e+03       0.000
  c_24_vr_storage_175  STORAGE      1.896    2.222    25  18:25    1.18e+03    1.22e+03       0.011
  c_23_vr_storage_7    STORAGE      0.035    0.035    24  22:25        2.78        2.78       0.000
  c_22_vr_storage_5    STORAGE      0.021    0.021    24  22:25       0.598       0.598       0.000
  c_21_vr_storage_7    STORAGE      0.036    0.036    24  22:25        2.75        2.75       0.000
  c_12_vr_storage_8    STORAGE      0.040    0.040    24  22:30        3.59        3.59       0.000
  c_20_vr_storage_13   STORAGE      0.075    0.075    24  22:30        3.18        3.18       0.000
  c_19_vr_storage_7    STORAGE      0.038    0.038    24  22:30        2.49        2.49       0.000
  c_10_vr_storage_10   STORAGE      0.056    0.056    24  22:30        2.07        2.07       0.000
  c_16_vr_storage_20   STORAGE      0.142    0.142    24  23:10        7.38        7.38       0.000
  c_15_vr_storage_24   STORAGE      0.169    0.169    24  23:20          11          11       0.000
  c_14_vr_storage_24   STORAGE      0.174    0.174    24  23:20        9.51        9.51       0.000
  pipe_ES              STORAGE      0.000    0.386     0  00:05           0        23.5       0.066
  pipe_Geldrop         STORAGE      0.000   27.547    10  18:55           0         295       0.010
  gb_136               STORAGE      0.000   17.668     9  14:20           0         121      -0.050
  c_129_vr_storage_2   STORAGE      0.079    0.079     2  18:40        2.05        2.05       0.000
  c_128_vr_storage_64  STORAGE      0.789    5.779    10  18:55         187         295      -0.163
  c_1285_vr_storage_10 STORAGE      0.089    0.089     2  18:40        5.18        5.18       0.000
  c_127_vr_storage_46  STORAGE      0.579    1.535    10  18:55        83.7        99.9      -0.063
  c_126_vr_storage_16  STORAGE      0.167    0.247     2  18:45        12.1        16.2      -0.141
  c_125_vr_storage_8   STORAGE      0.083    0.083     2  18:40         4.1         4.1       0.000
  c_124_storage        STORAGE      0.035    0.064    25  00:55        26.6        35.2       0.011
  c_136_vr_storage_28  STORAGE      0.333    1.792     9  14:20        49.1         121      -0.293
  c_135_vr_storage_18  STORAGE      0.204    0.204     2  18:45        26.7        26.7       0.000
  c_131_vr_storage_18  STORAGE      0.202    0.266     2  18:45        25.6        32.8      -0.124
  c_130_vr_storage_8   STORAGE      0.069    0.069     2  18:40        7.16        7.16       0.000
  c_134_vr_storage_8   STORAGE      0.084    0.084     2  18:40        6.23        6.23       0.000
  c_132_vr_storage_8   STORAGE      0.068    0.068     2  18:40        5.65        5.65       0.000
  Aalst_gemaal         STORAGE      0.000   61.319    10  18:55           0    1.78e+03       0.000
  Mierlo_1             STORAGE      0.000    0.782    10  01:30           0         118      -0.070
  pre_ontvangstkelder  STORAGE      0.000    3.007    10  04:36           0    2.16e+03      -0.000
  Eindhoven            STORAGE      0.000    0.008    27  15:25           0        7.51       0.000
  c_150_vr_storage_57  STORAGE      0.446    0.446    25  18:20        84.9        84.9       0.000
  c_123_vr_storage_40  STORAGE      0.336    0.336    24  23:35          80          80       0.000
  c_143_vr_storage_70  STORAGE      0.775    2.910    27  13:45         577    1.06e+03      -0.216
  c_147_vr_storage_4   STORAGE      0.046    0.046    25  17:15         1.2         1.2       0.000
  c_160_vr_storage_8   STORAGE      0.195    0.195    25  17:15         317         317       0.000
  c_145_vr_storage_4   STORAGE      0.024    0.024    25  17:10        4.42        4.42       0.000
  c_144_vr_storage_19  STORAGE      0.125    0.125    24  23:00        15.9        15.9       0.000
  c_142_vr_storage_35  STORAGE      0.284    0.284    24  23:35        67.1        67.1       0.000
  c_148_vr_storage_12  STORAGE      0.083    0.083    24  22:25        8.46        8.46       0.000
  c_149_vr_storage_17  STORAGE      0.106    0.106    24  22:35        4.56        4.56       0.000
  c_151_vr_storage_22  STORAGE      0.147    0.147    24  23:00        11.3        11.3       0.000
  c_161_vr_storage_32  STORAGE      0.244    0.244    24  23:35        15.1        15.1       0.000
  c_138_vr_storage_22  STORAGE      0.154    0.197    24  23:00        30.3        42.5      -0.161
  c_139_vr_storage_8   STORAGE      0.048    0.048    25  17:15        1.28        1.28       0.000
  c_137_vr_storage_4   STORAGE      0.027    0.027    25  17:10        10.9        10.9       0.000
  c_122_vr_storage_29  STORAGE      0.222    0.222    24  23:00        41.9        41.9       0.000
  c_121_vr_storage_12  STORAGE      0.081    0.132    24  22:25        10.3          19      -0.257
  c_120_vr_storage_8   STORAGE      0.053    0.053    25  17:15        8.69        8.69       0.000
  c_119_vr_storage_80  STORAGE      0.713    0.811    10  18:25         266         275      -0.017
  c_100_vr_storage_10  STORAGE      0.061    0.061    24  22:25        5.88        5.88       0.000
  c_118_vr_storage_13  STORAGE      0.081    0.081    24  22:25        2.93        2.93       0.000
  c_116_vr_storage_15  STORAGE      0.091    0.148    24  22:25        11.7        17.8      -0.189
  c_114_vr_storage_10  STORAGE      0.058    0.058    25  17:15        6.08        6.08       0.000
  c_112_vr_storage_21  STORAGE      0.147    0.147    24  23:00        17.9        17.9       0.000
  c_107_vr_storage_36  STORAGE      0.283    0.398    24  23:00          63        78.2      -0.109
  c_107_2_vr_storage_12 STORAGE      0.071    0.071    24  22:25        2.48        2.48       0.000
  c_106_vr_storage_13  STORAGE      0.085    0.085    24  22:25        12.8        12.8       0.000
  c_99_vr_storage_41   STORAGE      0.334    0.354    24  23:35        66.6        71.5      -0.038
  c_103_vr_storage_8   STORAGE      0.044    0.044    25  17:10        4.89        4.89       0.000
  c_98_vr_storage_20   STORAGE      0.141    0.141    24  23:00        23.3        23.3       0.000
  
  
  **********************
  Node Surcharge Summary
  **********************
  
  Surcharging occurs when water rises above the top of the highest conduit.
  ---------------------------------------------------------------------
                                               Max. Height   Min. Depth
                                   Hours       Above Crown    Below Rim
  Node                 Type      Surcharged         Meters       Meters
  ---------------------------------------------------------------------
  Nod_100              JUNCTION       14.39          1.720        0.000
  Mierlo_2             JUNCTION       13.71          2.340        0.000
  
  
  *********************
  Node Flooding Summary
  *********************
  
  Flooding refers to all water that overflows a node, whether it ponds or not.
  --------------------------------------------------------------------------
                                                             Total   Maximum
                                 Maximum   Time of Max       Flood    Ponded
                        Hours       Rate    Occurrence      Volume     Depth
  Node                 Flooded       CMS   days hr:min    10^6 ltr    Meters
  --------------------------------------------------------------------------
  Nod_100                 0.01     0.042     10  03:53       0.000     0.000
  Mierlo_2                0.01     0.260     10  01:43       0.000     0.000
  
  
  **********************
  Storage Volume Summary
  **********************
  
  ------------------------------------------------------------------------------------------------
                         Average    Avg   Evap  Exfil     Maximum    Max    Time of Max    Maximum
                          Volume   Pcnt   Pcnt   Pcnt      Volume   Pcnt     Occurrence    Outflow
  Storage Unit           1000 m³   Full   Loss   Loss     1000 m³   Full    days hr:min        CMS
  ------------------------------------------------------------------------------------------------
  c_24_vr_storage_175    581.622    5.8    0.0    0.0    1201.492   12.0      29  00:00      0.386
  c_23_vr_storage_7        0.000    0.0    0.0    0.0       0.000    0.0       0  00:00      0.035
  c_22_vr_storage_5        0.000    0.0    0.0    0.0       0.000    0.0       0  00:00      0.021
  c_21_vr_storage_7        0.000    0.0    0.0    0.0       0.000    0.0       0  00:00      0.036
  c_12_vr_storage_8        0.000    0.0    0.0    0.0       0.000    0.0       0  00:00      0.040
  c_20_vr_storage_13       0.000    0.0    0.0    0.0       0.000    0.0       0  00:00      0.075
  c_19_vr_storage_7        0.000    0.0    0.0    0.0       0.000    0.0       0  00:00      0.038
  c_10_vr_storage_10       0.000    0.0    0.0    0.0       0.000    0.0       0  00:00      0.056
  c_16_vr_storage_20       0.000    0.0    0.0    0.0       0.000    0.0       0  00:00      0.142
  c_15_vr_storage_24       0.000    0.0    0.0    0.0       0.000    0.0       0  00:00      0.169
  c_14_vr_storage_24       0.000    0.0    0.0    0.0       0.000    0.0       0  00:00      0.174
  pipe_ES                  9.528    3.2    0.0    0.0      16.029    5.3      27  15:25      0.008
  pipe_Geldrop             2.295    4.6    0.0    0.0       8.893   17.8      25  02:00      0.929
  gb_136                   0.061    4.0    0.0    0.0       1.297   86.4      25  18:25      2.240
  c_129_vr_storage_2       0.000    0.0    0.0    0.0       0.000    0.0       0  00:00      0.079
  c_128_vr_storage_64      0.000    0.0    0.0    0.0       0.004    0.0      25  18:00     27.547
  c_1285_vr_storage_10     0.000    0.0    0.0    0.0       0.000    0.0       0  00:00      0.089
  c_127_vr_storage_46      0.000    0.0    0.0    0.0       0.001    0.0       2  18:45      5.392
  c_126_vr_storage_16      0.000    0.0    0.0    0.0       0.001    0.0       2  18:45      1.309
  c_125_vr_storage_8       0.000    0.0    0.0    0.0       0.000    0.0       0  00:00      0.083
  c_124_storage           16.696    0.2    0.0    0.0      32.694    0.3      29  00:00      0.003
  c_136_vr_storage_28      0.000    0.0    0.0    0.0       0.004    0.0       2  18:45     17.668
  c_135_vr_storage_18      0.000    0.0    0.0    0.0       0.000    0.0       0  00:00      0.204
  c_131_vr_storage_18      0.000    0.0    0.0    0.0       0.000    0.0       2  18:41      1.743
  c_130_vr_storage_8       0.000    0.0    0.0    0.0       0.000    0.0       0  00:00      0.069
  c_134_vr_storage_8       0.000    0.0    0.0    0.0       0.000    0.0       0  00:00      0.084
  c_132_vr_storage_8       0.000    0.0    0.0    0.0       0.000    0.0       0  00:00      0.068
  Aalst_gemaal            28.177   14.1    0.0    0.0      73.269   36.6      10  02:54      2.100
  Mierlo_1                 0.000    0.8    0.0    0.0       0.053   99.4      25  17:50      0.450
  pre_ontvangstkelder      0.011    2.3    0.0    0.0       0.203   42.7      10  04:40      3.007
  Eindhoven                0.000    0.0    0.0    0.0       0.000    0.0       0  00:00      0.008
  c_150_vr_storage_57      0.000    0.0    0.0    0.0       0.000    0.0       0  00:00      0.446
  c_123_vr_storage_40      0.000    0.0    0.0    0.0       0.000    0.0       0  00:00      0.336
  c_143_vr_storage_70      0.000    0.0    0.0    0.0       0.009    0.0      24  22:58     50.000
  c_147_vr_storage_4       0.000    0.0    0.0    0.0       0.000    0.0       0  00:00      0.046
  c_160_vr_storage_8       0.000    0.0    0.0    0.0       0.000    0.0       0  00:00      0.195
  c_145_vr_storage_4       0.000    0.0    0.0    0.0       0.000    0.0       0  00:00      0.024
  c_144_vr_storage_19      0.000    0.0    0.0    0.0       0.000    0.0       0  00:00      0.125
  c_142_vr_storage_35      0.000    0.0    0.0    0.0       0.000    0.0       0  00:00      0.284
  c_148_vr_storage_12      0.000    0.0    0.0    0.0       0.000    0.0       0  00:00      0.083
  c_149_vr_storage_17      0.000    0.0    0.0    0.0       0.000    0.0       0  00:00      0.106
  c_151_vr_storage_22      0.000    0.0    0.0    0.0       0.000    0.0       0  00:00      0.147
  c_161_vr_storage_32      0.000    0.0    0.0    0.0       0.000    0.0       0  00:00      0.244
  c_138_vr_storage_22      0.000    0.0    0.0    0.0       0.000    0.0      24  22:34      2.397
  c_139_vr_storage_8       0.000    0.0    0.0    0.0       0.000    0.0       0  00:00      0.048
  c_137_vr_storage_4       0.000    0.0    0.0    0.0       0.000    0.0       0  00:00      0.027
  c_122_vr_storage_29      0.000    0.0    0.0    0.0       0.000    0.0       0  00:00      0.222
  c_121_vr_storage_12      0.000    0.0    0.0    0.0       0.000    0.0      24  22:34      1.717
  c_120_vr_storage_8       0.000    0.0    0.0    0.0       0.000    0.0       0  00:00      0.053
  c_119_vr_storage_80      0.000    0.0    0.0    0.0       0.001    0.0      24  22:34      3.677
  c_100_vr_storage_10      0.000    0.0    0.0    0.0       0.000    0.0       0  00:00      0.061
  c_118_vr_storage_13      0.000    0.0    0.0    0.0       0.000    0.0       0  00:00      0.081
  c_116_vr_storage_15      0.000    0.0    0.0    0.0       0.000    0.0      24  22:34      1.215
  c_114_vr_storage_10      0.000    0.0    0.0    0.0       0.000    0.0       0  00:00      0.058
  c_112_vr_storage_21      0.000    0.0    0.0    0.0       0.000    0.0       0  00:00      0.147
  c_107_vr_storage_36      0.000    0.0    0.0    0.0       0.001    0.0      24  22:34      3.909
  c_107_2_vr_storage_12     0.000    0.0    0.0    0.0       0.000    0.0       0  00:00      0.071
  c_106_vr_storage_13      0.000    0.0    0.0    0.0       0.000    0.0       0  00:00      0.085
  c_99_vr_storage_41       0.000    0.0    0.0    0.0       0.000    0.0      24  22:34      0.938
  c_103_vr_storage_8       0.000    0.0    0.0    0.0       0.000    0.0       0  00:00      0.044
  c_98_vr_storage_20       0.000    0.0    0.0    0.0       0.000    0.0       0  00:00      0.141
  
  
  ***********************
  Outfall Loading Summary
  ***********************
  
  -----------------------------------------------------------
                         Flow       Avg       Max       Total
                         Freq      Flow      Flow      Volume
  Outfall Node           Pcnt       CMS       CMS    10^6 ltr
  -----------------------------------------------------------
  cso_Geldrop            0.00     0.000     0.000       0.000
  cso_gb_136             0.11     0.193     1.924       2.538
  cso_RZ                 0.00     0.000     0.000       0.000
  cso_ES_2               0.00     0.000     0.000       0.000
  cso_ES_1               0.00     0.000     0.000       0.000
  cso_AALST              0.00     0.000     0.000       0.000
  out_ES                90.53     0.003     0.008       7.505
  out_RZ               100.00     0.863     3.007    2160.795
  -----------------------------------------------------------
  System                23.83     1.059     3.724    2170.838
  
  
  ********************
  Link Flow Summary
  ********************
  
  -----------------------------------------------------------------------------
                                 Maximum  Time of Max   Maximum    Max/    Max/
                                  |Flow|   Occurrence   |Veloc|    Full    Full
  Link                 Type          CMS  days hr:min     m/sec    Flow   Depth
  -----------------------------------------------------------------------------
  Con_161              CONDUIT     0.782    10  01:30     25.24    0.04    1.00
  Con_158              CONDUIT     0.258     0  00:19      0.90    0.01    0.51
  Con_159              CONDUIT     0.114     0  00:22      0.32    0.02    0.48
  Con_160              CONDUIT     0.315     0  00:00      1.02    0.02    0.52
  Con_101              CONDUIT     0.570    25  02:00      0.55    1.77    0.82
  Con_102              CONDUIT     0.568    25  02:10      0.63    1.24    0.74
  Con_103              CONDUIT     0.520    10  03:11      0.65    0.69    0.70
  Con_104              CONDUIT     0.520    10  03:05      1.48    0.52    0.67
  Con_105              CONDUIT     0.519    10  03:17      0.63    1.11    0.73
  Con_106              CONDUIT     0.517    10  03:53      0.85    0.67    0.52
  Con_107              CONDUIT     0.517    10  03:56      0.75    0.13    0.20
  Con_108              CONDUIT     0.982     0  00:01      1.30    0.22    0.21
  Con_109              CONDUIT     2.532    10  03:42      1.06    0.43    0.43
  Con_110              CONDUIT     2.530    10  03:45      1.13    0.39    0.41
  Con_157              CONDUIT     0.370     0  00:16      0.91    0.01    0.55
  Con_111              CONDUIT     2.518    10  04:01      0.79    0.44    0.57
  Con_112              CONDUIT     2.515    10  04:04      0.99    0.34    0.46
  Con_113              CONDUIT     2.512    10  04:09      1.19    0.58    0.59
  Con_114              CONDUIT     2.511    10  04:09      1.18    0.63    0.59
  Con_115              CONDUIT     2.511    10  04:14      1.14    0.60    0.61
  Con_116              CONDUIT     2.612    10  03:51      1.12    0.63    0.69
  Con_117              CONDUIT     5.644    25  02:12      2.08    0.37    0.85
  Con_118              CONDUIT     0.698     0  00:02      1.08    0.18    0.23
  Con_119              CONDUIT     0.537     0  00:04      0.87    0.11    0.26
  Con_120              CONDUIT     0.515    25  03:23      0.69    0.11    0.32
  Con_121              CONDUIT     0.527    25  03:21      0.57    0.10    0.36
  Con_122              CONDUIT     3.007    10  04:36      2.68    0.65    0.28
  Con_123              CONDUIT     3.007    10  04:36      3.96    0.12    0.24
  Con_125              CONDUIT     2.100    10  08:00      1.01    0.91    0.73
  Con_126              CONDUIT     2.105    10  02:24      1.03    1.44    0.74
  Con_127              CONDUIT     2.100    10  08:08      1.72    0.33    0.70
  Con_128              CONDUIT     2.100    10  08:16      1.56    0.88    0.47
  Con_129              CONDUIT     2.540    10  03:12      1.36    0.33    0.47
  Con_130              CONDUIT     2.538    10  03:20      0.87    0.53    0.52
  Con_140              CONDUIT     2.537    10  03:25      0.87    0.47    0.53
  Con_141              CONDUIT     2.536    10  03:28      0.86    0.53    0.53
  Con_142              CONDUIT     2.535    10  03:31      0.85    0.54    0.54
  Con_143              CONDUIT     2.535    10  03:33      0.84    0.53    0.54
  Con_144              CONDUIT     2.534    10  03:38      1.00    0.68    0.45
  Con_152              CONDUIT     2.695    10  03:36      1.07    1.01    0.72
  Con_153              CONDUIT     2.533    10  04:19      1.08    0.88    0.66
  Con_154              CONDUIT     2.524    10  04:27      1.14    0.98    0.62
  Con_155              CONDUIT     2.514    10  04:31      1.10    0.77    0.56
  Con_156              CONDUIT     2.502    10  04:35      1.36    0.68    0.46
  geldrop_out_east     CONDUIT     0.633    25  01:54      1.05   23.26    0.83
  geldrop_out_north    CONDUIT     0.512    10  03:53      0.47    0.35    0.86
  mierlo_out           CONDUIT     0.789    25  17:46     10.42    0.22    1.00
  eeneind_out          CONDUIT     0.048    25  02:39      1.73    0.52    0.57
  eindhoven_out        CONDUIT     0.008    27  15:25      0.26    0.28    0.08
  P_c_24_d_175         PUMP        0.386     0  00:05              0.01
  P_c_23_d_7           PUMP        0.035    24  22:25              0.00
  P_c_22_d_5           PUMP        0.021    24  22:25              0.00
  P_c_21_d_7           PUMP        0.036    24  22:25              0.00
  P_c_12_d_8           PUMP        0.040    24  22:30              0.00
  P_c_20_d_13          PUMP        0.075    24  22:30              0.00
  P_c_19_d_7           PUMP        0.038    24  22:30              0.00
  P_c_10_d_10          PUMP        0.056    24  22:30              0.00
  P_c_16_d_20          PUMP        0.142    24  23:10              0.00
  P_c_15_d_24          PUMP        0.169    24  23:20              0.00
  P_c_14_d_24          PUMP        0.174    24  23:20              0.00
  P_c_129_d_2          PUMP        0.079     2  18:40              0.00
  P_c_128_d_64         PUMP       27.547    10  18:55              0.55
  P_c_1285_d_10        PUMP        0.089     2  18:40              0.00
  P_c_127_d_46         PUMP        5.392    10  18:55              0.11
  P_c_126_d_16         PUMP        1.309    10  18:55              0.03
  P_c_125_d_8          PUMP        0.083     2  18:40              0.00
  P_c_136_d_28         PUMP       17.668     9  14:20              0.35
  P_c_135_d_18         PUMP        0.204     2  18:45              0.00
  P_c_131_d_18         PUMP        1.743     9  14:20              0.03
  P_c_130_d_8          PUMP        0.069     2  18:40              0.00
  P_c_134_d_8          PUMP        0.084     2  18:40              0.00
  P_c_132_d_8          PUMP        0.068     2  18:40              0.00
  Con_1119.1           PUMP        0.316     2  18:24              1.00
  P_riool_zuid_out     PUMP        3.007    10  04:40              0.91
  P_eindhoven_out      PUMP        0.008    27  15:25              0.00
  c_150_d_57           PUMP        0.446    25  18:20              0.01
  c_123_d_40           PUMP        0.336    24  23:35              0.01
  c_143_d_70           PUMP       50.000     1  23:30              1.00
  c_147_d_4            PUMP        0.046    25  17:15              0.00
  c_160_d_8            PUMP        0.195    25  17:15              0.00
  c_145_d_4            PUMP        0.024    25  17:10              0.00
  c_144_d_19           PUMP        0.125    24  23:00              0.00
  c_142_d_35           PUMP        0.284    24  23:35              0.01
  c_148_d_12           PUMP        0.083    24  22:25              0.00
  c_149_d_17           PUMP        0.106    24  22:35              0.00
  c_151_d_22           PUMP        0.147    24  23:00              0.00
  c_161_d_32           PUMP        0.244    24  23:35              0.00
  c_138_d_22           PUMP        2.397     9  14:20              0.05
  c_139_d_8            PUMP        0.048    25  17:15              0.00
  c_137_d_4            PUMP        0.027    25  17:10              0.00
  c_122_d_29           PUMP        0.222    24  23:00              0.00
  c_121_d_12           PUMP        1.717     9  14:20              0.03
  c_120_d_8            PUMP        0.053    25  17:15              0.00
  c_119_d_80           PUMP        3.677    10  18:55              0.07
  c_100_d_10           PUMP        0.061    24  22:25              0.00
  c_118_d_13           PUMP        0.081    24  22:25              0.00
  c_116_d_15           PUMP        1.215    27  13:45              0.02
  c_114_d_10           PUMP        0.058    25  17:15              0.00
  c_112_d_21           PUMP        0.147    24  23:00              0.00
  c_107_d_36           PUMP        3.909    27  13:45              0.08
  c_107_2_d_12         PUMP        0.071    24  22:25              0.00
  c_106_d_13           PUMP        0.085    24  22:25              0.00
  c_99_d_41            PUMP        0.938     9  14:20              0.02
  c_103_d_8            PUMP        0.044    25  17:10              0.00
  c_98_d_20            PUMP        0.141    24  23:00              0.00
  P_aalst_1            PUMP        0.560     0  16:10              1.00
  P_aalst_2            PUMP        0.560     2  20:45              1.00
  P_aalst_3            PUMP        0.490    10  00:40              1.00
  P_aalst_4            PUMP        0.490    10  01:55              1.00
  weir_Geldrop         WEIR        0.000     0  00:00                      0.00
  weir_gb_136          WEIR        1.924    25  18:22                      0.00
  Con_A*HLCMRZ1135.1   WEIR        0.000     0  00:00                      0.00
  E_weir               WEIR        0.000     0  00:00                      0.00
  weir_ES              WEIR        0.000     0  00:00                      0.00
  Aalst_weir           WEIR        0.000     0  00:00                      0.00
  
  
  ***************************
  Flow Classification Summary
  ***************************
  
  -------------------------------------------------------------------------------------
                      Adjusted    ---------- Fraction of Time in Flow Class ---------- 
                       /Actual         Up    Down  Sub   Sup   Up    Down  Norm  Inlet 
  Conduit               Length    Dry  Dry   Dry   Crit  Crit  Crit  Crit  Ltd   Ctrl  
  -------------------------------------------------------------------------------------
  Con_161                 1.00   0.00  0.00  0.00  0.03  0.00  0.00  0.97  0.00  0.00
  Con_158                 1.00   0.00  0.00  0.00  1.00  0.00  0.00  0.00  0.00  0.00
  Con_159                 1.00   0.00  0.00  0.00  1.00  0.00  0.00  0.00  0.00  0.00
  Con_160                 1.00   0.00  0.00  0.00  1.00  0.00  0.00  0.00  0.00  0.00
  Con_101                 1.00   0.00  0.00  0.00  0.99  0.00  0.00  0.01  0.00  0.00
  Con_102                 1.00   0.00  0.00  0.00  1.00  0.00  0.00  0.00  0.00  0.00
  Con_103                 1.00   0.00  0.00  0.00  1.00  0.00  0.00  0.00  0.10  0.00
  Con_104                 1.00   0.00  0.00  0.00  1.00  0.00  0.00  0.00  0.00  0.00
  Con_105                 1.00   0.00  0.00  0.00  1.00  0.00  0.00  0.00  0.00  0.00
  Con_106                 1.00   0.00  0.00  0.00  0.00  0.00  0.00  1.00  0.00  0.00
  Con_107                 1.00   0.00  0.00  0.00  1.00  0.00  0.00  0.00  0.09  0.00
  Con_108                 1.00   0.00  0.00  0.00  1.00  0.00  0.00  0.00  0.80  0.00
  Con_109                 1.00   0.00  0.00  0.00  1.00  0.00  0.00  0.00  0.02  0.00
  Con_110                 1.00   0.00  0.00  0.00  0.98  0.00  0.00  0.02  0.00  0.00
  Con_157                 1.00   0.00  0.00  0.00  1.00  0.00  0.00  0.00  0.00  0.00
  Con_111                 1.00   0.00  0.00  0.00  1.00  0.00  0.00  0.00  0.00  0.00
  Con_112                 1.00   0.00  0.00  0.00  1.00  0.00  0.00  0.00  0.89  0.00
  Con_113                 1.00   0.00  0.00  0.00  1.00  0.00  0.00  0.00  0.02  0.00
  Con_114                 1.00   0.00  0.00  0.00  1.00  0.00  0.00  0.00  0.00  0.00
  Con_115                 1.00   0.00  0.00  0.00  1.00  0.00  0.00  0.00  0.86  0.00
  Con_116                 1.00   0.00  0.00  0.00  1.00  0.00  0.00  0.00  0.35  0.00
  Con_117                 1.00   0.00  0.00  0.00  1.00  0.00  0.00  0.00  0.14  0.00
  Con_118                 1.00   0.00  0.00  0.00  1.00  0.00  0.00  0.00  0.00  0.00
  Con_119                 1.00   0.00  0.00  0.00  1.00  0.00  0.00  0.00  0.81  0.00
  Con_120                 1.00   0.00  0.00  0.00  1.00  0.00  0.00  0.00  0.03  0.00
  Con_121                 1.00   0.00  0.00  0.00  1.00  0.00  0.00  0.00  0.00  0.00
  Con_122                 1.00   0.00  0.00  0.00  0.77  0.23  0.00  0.00  0.00  0.00
  Con_123                 1.00   0.00  0.00  0.00  0.00  0.00  0.00  1.00  0.00  0.00
  Con_125                 1.00   0.00  0.00  0.00  1.00  0.00  0.00  0.00  0.03  0.00
  Con_126                 1.00   0.00  0.00  0.00  1.00  0.00  0.00  0.00  0.00  0.00
  Con_127                 1.00   0.00  0.00  0.00  1.00  0.00  0.00  0.00  0.91  0.00
  Con_128                 1.00   0.00  0.00  0.00  0.00  0.00  0.00  1.00  0.00  0.00
  Con_129                 1.00   0.00  0.00  0.00  1.00  0.00  0.00  0.00  0.95  0.00
  Con_130                 1.00   0.00  0.00  0.00  1.00  0.00  0.00  0.00  0.00  0.00
  Con_140                 1.00   0.00  0.00  0.00  1.00  0.00  0.00  0.00  0.02  0.00
  Con_141                 1.00   0.00  0.00  0.00  1.00  0.00  0.00  0.00  0.02  0.00
  Con_142                 1.00   0.00  0.00  0.00  1.00  0.00  0.00  0.00  0.01  0.00
  Con_143                 1.00   0.00  0.00  0.00  1.00  0.00  0.00  0.00  0.02  0.00
  Con_144                 1.00   0.00  0.00  0.00  0.97  0.00  0.00  0.03  0.00  0.00
  Con_152                 1.00   0.00  0.00  0.00  1.00  0.00  0.00  0.00  0.19  0.00
  Con_153                 1.00   0.00  0.00  0.00  1.00  0.00  0.00  0.00  0.09  0.00
  Con_154                 1.00   0.00  0.00  0.00  1.00  0.00  0.00  0.00  0.00  0.00
  Con_155                 1.00   0.00  0.00  0.00  1.00  0.00  0.00  0.00  0.00  0.00
  Con_156                 1.00   0.00  0.00  0.00  1.00  0.00  0.00  0.00  0.03  0.00
  geldrop_out_east        1.00   0.00  0.00  0.00  1.00  0.00  0.00  0.00  0.00  0.00
  geldrop_out_north       1.00   0.00  0.00  0.00  1.00  0.00  0.00  0.00  0.90  0.00
  mierlo_out              1.00   0.00  0.00  0.00  0.03  0.97  0.00  0.00  0.00  0.00
  eeneind_out             1.00   0.00  0.00  0.00  0.92  0.07  0.00  0.00  0.88  0.00
  eindhoven_out           1.00   0.00  0.00  0.00  1.00  0.00  0.00  0.00  0.00  0.00
  
  
  *************************
  Conduit Surcharge Summary
  *************************
  
  ----------------------------------------------------------------------------
                                                           Hours        Hours 
                         --------- Hours Full --------   Above Full   Capacity
  Conduit                Both Ends  Upstream  Dnstream   Normal Flow   Limited
  ----------------------------------------------------------------------------
  Con_161                    13.67     13.67     18.92      0.01         0.01
  Con_101                     0.01     18.36      0.01     56.87         0.01
  Con_102                     0.01      0.01      0.01     30.92         0.01
  Con_105                     0.01      0.01      0.01     13.80         0.01
  Con_117                     0.01      0.01     35.88      0.01         0.01
  Con_126                     0.01      0.01      0.01     61.49         0.01
  Con_152                     0.01      0.01      0.01      0.06         0.01
  geldrop_out_east            0.01      0.01      0.01     40.73         0.01
  geldrop_out_north           0.01      0.01     14.39      0.01         0.01
  mierlo_out                 11.65     11.78     13.67      0.01         0.03
  eeneind_out                 0.01      0.01    687.34      0.01         0.01
  
  
  ***************
  Pumping Summary
  ***************
  
  ---------------------------------------------------------------------------------------------------------
                                                  Min       Avg       Max     Total     Power    % Time Off
                        Percent   Number of      Flow      Flow      Flow    Volume     Usage    Pump Curve
  Pump                 Utilized   Start-Ups       CMS       CMS       CMS  10^6 ltr     Kw-hr    Low   High
  ---------------------------------------------------------------------------------------------------------
  P_c_24_d_175            99.99           2      0.00      0.01      0.39    23.450    607.28    0.0  100.0
  P_c_23_d_7             100.00           1      0.00      0.00      0.03     2.782      4.45    0.0    0.0
  P_c_22_d_5               9.24          38      0.00      0.00      0.02     0.597      0.97    0.0    0.0
  P_c_21_d_7             100.00           1      0.00      0.00      0.04     2.747      4.40    0.0    0.0
  P_c_12_d_8             100.00           1      0.00      0.00      0.04     3.588      5.74    0.0    0.0
  P_c_20_d_13             13.14          26      0.00      0.01      0.07     3.184      5.17    0.0    0.0
  P_c_19_d_7             100.00           1      0.00      0.00      0.04     2.485      3.99    0.0    0.0
  P_c_10_d_10             11.83          30      0.00      0.01      0.06     2.068      3.36    0.0    0.0
  P_c_16_d_20             16.01          22      0.00      0.02      0.14     7.378     11.97    0.0    0.0
  P_c_15_d_24            100.00           1      0.00      0.00      0.17    11.005     17.77    0.0    0.0
  P_c_14_d_24             17.00          21      0.00      0.02      0.17     9.506     15.40    0.0    0.0
  P_c_129_d_2             11.08          35      0.00      0.01      0.08     2.050      0.00    0.0    0.0
  P_c_128_d_64           100.00           1      0.00      0.11     27.55   294.283  12357.00    0.0   99.8
  P_c_1285_d_10          100.00           1      0.00      0.00      0.09     5.184      0.00    0.0    0.0
  P_c_127_d_46           100.00           1      0.00      0.04      5.39    99.818      0.00    0.0   99.8
  P_c_126_d_16           100.00           1      0.00      0.01      1.31    16.143      0.00    0.0   99.8
  P_c_125_d_8            100.00           1      0.00      0.00      0.08     4.096      0.00    0.0    0.0
  P_c_136_d_28           100.00           1      0.00      0.05     17.67   120.354   5467.13    0.0   99.8
  P_c_135_d_18           100.00           1      0.00      0.01      0.20    26.698      0.00    0.0    0.0
  P_c_131_d_18           100.00           1      0.00      0.01      1.74    32.746      0.00    0.0   99.8
  P_c_130_d_8            100.00           1      0.00      0.00      0.07     7.160      0.00    0.0    0.0
  P_c_134_d_8            100.00           1      0.00      0.00      0.08     6.231      0.00    0.0    0.0
  P_c_132_d_8            100.00           1      0.00      0.00      0.07     5.653      0.00    0.0    0.0
  Con_1119.1             100.00           2      0.00      0.05      0.32   118.464    187.94    0.0    3.1
  P_riool_zuid_out       100.00           1      0.00      0.86      3.01  2160.805  48766.34    0.0    0.0
  P_eindhoven_out         90.45           1      0.00      0.00      0.01     7.503    204.29    0.0    0.0
  c_150_d_57             100.00           1      0.00      0.03      0.45    84.933     88.05    0.0    0.0
  c_123_d_40             100.00           1      0.00      0.03      0.34    80.019     72.80    0.0    0.0
  c_143_d_70             100.00           1      0.00      0.43     50.00  1064.048    879.38    0.0   99.8
  c_147_d_4               11.20          37      0.00      0.00      0.05     1.201      0.00    0.0    0.0
  c_160_d_8              100.00           1      0.00      0.13      0.19   317.164      0.00    0.0    0.0
  c_145_d_4              100.00           1      0.00      0.00      0.02     4.424      0.00    0.0    0.0
  c_144_d_19             100.00           1      0.00      0.01      0.12    15.929      0.00    0.0    0.0
  c_142_d_35             100.00           1      0.00      0.03      0.28    67.096      0.00    0.0    0.0
  c_148_d_12             100.00           1      0.00      0.00      0.08     8.458      0.00    0.0    0.0
  c_149_d_17              14.89          25      0.00      0.01      0.11     4.558      0.00    0.0    0.0
  c_151_d_22             100.00           1      0.00      0.00      0.15    11.266      0.00    0.0    0.0
  c_161_d_32              19.75          21      0.00      0.03      0.24    15.111      0.00    0.0    0.0
  c_138_d_22             100.00           1      0.00      0.02      2.40    42.442      0.00    0.0   99.8
  c_139_d_8               11.38          36      0.00      0.00      0.05     1.279      0.00    0.0    0.0
  c_137_d_4              100.00           1      0.00      0.00      0.03    10.905      0.00    0.0    0.0
  c_122_d_29             100.00           1      0.00      0.02      0.22    41.913     37.83    0.0    0.0
  c_121_d_12             100.00           1      0.00      0.01      1.72    18.959     16.06    0.0   99.8
  c_120_d_8              100.00           1      0.00      0.00      0.05     8.691      0.00    0.0    0.0
  c_119_d_80             100.00           1      0.00      0.11      3.68   274.667    253.50    0.0   99.8
  c_100_d_10             100.00           1      0.00      0.00      0.06     5.880      0.00    0.0    0.0
  c_118_d_13              13.64          27      0.00      0.01      0.08     2.931      0.00    0.0    0.0
  c_116_d_15             100.00           1      0.00      0.01      1.22    17.774     15.54    0.0   99.8
  c_114_d_10             100.00           1      0.00      0.00      0.06     6.082      0.00    0.0    0.0
  c_112_d_21             100.00           1      0.00      0.01      0.15    17.926     16.73    0.0    0.0
  c_107_d_36             100.00           1      0.00      0.03      3.91    78.219     70.61    0.0   99.8
  c_107_2_d_12            88.75          22      0.00      0.00      0.07     2.471      0.00    0.0    0.0
  c_106_d_13             100.00           1      0.00      0.01      0.09    12.779      0.00    0.0    0.0
  c_99_d_41              100.00           1      0.00      0.03      0.94    71.515     66.89    0.0   99.8
  c_103_d_8              100.00           1      0.00      0.00      0.04     4.889      0.00    0.0    0.0
  c_98_d_20              100.00           1      0.00      0.01      0.14    23.345     20.64    0.0    0.0
  P_aalst_1               97.68           1      0.00      0.56      0.56  1370.399  68921.17    0.0  100.0
  P_aalst_2               16.19           4      0.00      0.56      0.56   227.112  11598.82    0.0  100.0
  P_aalst_3                8.86           2      0.00      0.49      0.49   108.768   5583.03    0.0  100.0
  P_aalst_4                4.35           1      0.00      0.49      0.49    53.355   2751.62    0.0  100.0
  

  Analysis begun on:  Thu Feb 20 13:45:47 2025
  Analysis ended on:  Thu Feb 20 13:48:25 2025
  Total elapsed time: 00:02:38