
  EPA STORM WATER MANAGEMENT MODEL - VERSION 5.2 (Build 5.2.4)
  PYSWMM TOOLKIT API - VERSION v1.0 (2023-11-27)
  ------------------------------------------------------------

  WARNING 02: maximum depth increased for Node gb127
  
  ****************
  Analysis Options
  ****************
  Flow Units ............... CMS
  Process Models:
    Rainfall/Runoff ........ YES
    RDII ................... NO
    Snowmelt ............... NO
    Groundwater ............ NO
    Flow Routing ........... YES
    Ponding Allowed ........ NO
    Water Quality .......... NO
  Infiltration Method ...... HORTON
  Flow Routing Method ...... DYNWAVE
  Surcharge Method ......... EXTRAN
  Starting Date ............ 07/01/2024 00:00:00
  Ending Date .............. 07/31/2024 00:00:00
  Antecedent Dry Days ...... 0.0
  Report Time Step ......... 00:05:00
  Wet Time Step ............ 00:01:00
  Dry Time Step ............ 00:10:00
  Routing Time Step ........ 2.00 sec
  Variable Time Step ....... YES
  Maximum Trials ........... 12
  Number of Threads ........ 2
  Head Tolerance ........... 0.000200 m
  
  
  *********************
  Rainfall File Summary
  *********************
  Station    First        Last         Recording   Periods    Periods    Periods
  ID         Date         Date         Frequency  w/Precip    Missing    Malfunc.
  -------------------------------------------------------------------------------
  ES         01/01/2024   12/31/2024       5 min    105217          0          0

  GE         01/01/2024   12/31/2024       5 min    105217          0          0

  RZ1        01/01/2024   12/31/2024       5 min    105217          0          0

  RZ2        01/01/2024   12/31/2024       5 min    105217          0          0

  
  
  **************************        Volume         Depth
  Runoff Quantity Continuity     hectare-m            mm
  **************************     ---------       -------
  Total Precipitation ......       320.857        76.056
  Evaporation Loss .........       131.173        31.093
  Infiltration Loss ........         0.000         0.000
  Surface Runoff ...........       189.693        44.965
  Final Storage ............         0.000         0.000
  Continuity Error (%) .....        -0.003
  
  
  **************************        Volume        Volume
  Flow Routing Continuity        hectare-m      10^6 ltr
  **************************     ---------     ---------
  Dry Weather Inflow .......       213.171      2131.734
  Wet Weather Inflow .......       189.693      1896.952
  Groundwater Inflow .......         0.000         0.000
  RDII Inflow ..............         0.000         0.000
  External Inflow ..........        93.797       937.976
  External Outflow .........       494.705      4947.099
  Flooding Loss ............         0.428         4.281
  Evaporation Loss .........         0.011         0.106
  Exfiltration Loss ........         0.000         0.000
  Initial Stored Volume ....         0.804         8.043
  Final Stored Volume ......         4.242        42.422
  Continuity Error (%) .....        -0.386
  
  
  *************************
  Highest Continuity Errors
  *************************
  Node J119 (-3.51%)
  Node Nod_A*HLCMRZ1135 (2.66%)
  Node J1 (-1.48%)
  
  
  ***************************
  Time-Step Critical Elements
  ***************************
  None
  
  
  ********************************
  Highest Flow Instability Indexes
  ********************************
  Link Con_123 (3)
  Link Con_122 (3)
  Link Con_121 (2)
  Link Con_156 (2)
  Link Con_117 (2)
  
  
  *********************************
  Most Frequent Nonconverging Nodes
  *********************************
  Node cso_Geldrop (1.87%)
  Node cso_gb_136 (1.87%)
  Node cso_RZ (1.87%)
  Node cso_ES_1 (1.87%)
  Node cso_AALST (1.87%)
  
  
  *************************
  Routing Time Step Summary
  *************************
  Minimum Time Step           :     0.72 sec
  Average Time Step           :     2.00 sec
  Maximum Time Step           :     2.00 sec
  % of Time in Steady State   :     0.00
  Average Iterations per Step :     2.27
  % of Steps Not Converging   :     1.87
  Time Step Frequencies       :
      2.000 -  1.516 sec      :   100.00 %
      1.516 -  1.149 sec      :     0.00 %
      1.149 -  0.871 sec      :     0.00 %
      0.871 -  0.660 sec      :     0.00 %
      0.660 -  0.500 sec      :     0.00 %
  
  
  ***************************
  Subcatchment Runoff Summary
  ***************************
  
  ------------------------------------------------------------------------------------------------------------------------------
                            Total      Total      Total      Total     Imperv       Perv      Total       Total     Peak  Runoff
                           Precip      Runon       Evap      Infil     Runoff     Runoff     Runoff      Runoff   Runoff   Coeff
  Subcatchment                 mm         mm         mm         mm         mm         mm         mm    10^6 ltr      CMS
  ------------------------------------------------------------------------------------------------------------------------------
  c_24_catchment            73.02       0.00      33.26       0.00      39.76       0.00      39.76      763.01    18.30   0.545
  c_23_catchment            73.02       0.00      34.02       0.00      39.00       0.00      39.00        1.17     0.03   0.534
  c_22_catchment            73.02       0.00      34.02       0.00      39.00       0.00      39.00        0.62     0.01   0.534
  c_21_catchment            73.02       0.00      34.02       0.00      39.00       0.00      39.00        1.25     0.03   0.534
  c_12_catchment            73.02       0.00      34.02       0.00      39.00       0.00      39.00        1.44     0.03   0.534
  c_20_catchment            73.02       0.00      34.02       0.00      39.00       0.00      39.00        3.90     0.08   0.534
  c_19_catchment            73.02       0.00      34.02       0.00      39.00       0.00      39.00        1.33     0.03   0.534
  c_10_catchment            73.02       0.00      37.94       0.00      35.08       0.00      35.08        2.18     0.03   0.480
  c_16_catchment            73.02       0.00      34.02       0.00      39.00       0.00      39.00       10.30     0.22   0.534
  c_15_catchment            73.02       0.00      34.02       0.00      39.00       0.00      39.00       13.22     0.28   0.534
  c_14_catchment            73.02       0.00      34.02       0.00      39.00       0.00      39.00       13.89     0.30   0.534
  c_129_catchment           83.89       0.00      26.58       0.00      57.31       0.00      57.31        2.87     0.16   0.683
  c_128_catchment           83.89       0.00      27.62       0.00      56.27       0.00      56.27      143.55     5.85   0.671
  c_1285_catchment          83.89       0.00      26.93       0.00      56.97       0.00      56.97        3.30     0.17   0.679
  c_127_catchment           83.89       0.00      26.14       0.00      57.76       0.00      57.76       77.92     5.17   0.689
  c_126_catchment           83.89       0.00      26.47       0.00      57.43       0.00      57.43        9.07     0.54   0.685
  c_125_catchment           83.89       0.00      24.69       0.00      59.22       0.00      59.22        3.14     0.42   0.706
  c_124_catchment           83.89       0.00      23.42       0.00      60.54       0.00      60.54        0.61     0.22   0.722
  c_136_catchment           83.89       0.00      30.71       0.00      53.18       0.00      53.18       26.86     0.58   0.634
  c_135_catchment           83.89       0.00      29.99       0.00      53.91       0.00      53.91       11.86     0.28   0.643
  c_131_catchment           83.89       0.00      30.94       0.00      52.95       0.00      52.95       11.38     0.24   0.631
  c_130_catchment           83.89       0.00      28.83       0.00      55.06       0.00      55.06        2.15     0.06   0.656
  c_134_catchment           83.89       0.00      29.86       0.00      54.04       0.00      54.04        2.86     0.07   0.644
  c_132_catchment           83.89       0.00      28.83       0.00      55.06       0.00      55.06        2.15     0.06   0.656
  c_150_catchment           83.24       0.00      28.75       0.00      54.49       0.00      54.49      111.70     5.51   0.655
  c_123_catchment           83.24       0.00      29.60       0.00      53.64       0.00      53.64       54.44     2.30   0.644
  c_143_catchment           83.24       0.00      33.63       0.00      49.61       0.00      49.61      152.80     3.25   0.596
  c_147_catchment           83.24       0.00      28.25       0.00      55.00       0.00      55.00        2.36     0.13   0.661
  c_160_catchment           83.24       0.00      28.68       0.00      54.56       0.00      54.56        2.73     0.14   0.655
  c_145_catchment           83.24       0.00      26.45       0.00      56.80       0.00      56.80        0.57     0.06   0.682
  c_144_catchment           83.24       0.00      29.98       0.00      53.26       0.00      53.26       12.14     0.48   0.640
  c_142_catchment           83.24       0.00      30.19       0.00      53.06       0.00      53.06       40.75     1.54   0.637
  c_148_catchment           83.24       0.00      28.67       0.00      54.58       0.00      54.58        6.11     0.31   0.656
  c_149_catchment           83.24       0.00      30.21       0.00      53.04       0.00      53.04        9.71     0.37   0.637
  c_151_catchment           83.24       0.00      29.49       0.00      53.75       0.00      53.75       15.80     0.68   0.646
  c_161_catchment           83.24       0.00      30.58       0.00      52.66       0.00      52.66       35.81     1.27   0.633
  c_138_catchment           83.24       0.00      29.81       0.00      53.43       0.00      53.43       15.44     0.63   0.642
  c_139_catchment           83.24       0.00      28.44       0.00      54.80       0.00      54.80        2.52     0.13   0.658
  c_137_catchment           83.24       0.00      26.45       0.00      56.80       0.00      56.80        0.57     0.06   0.682
  c_122_catchment           70.37       0.00      25.28       0.00      45.10       0.00      45.10       23.54     1.66   0.641
  c_121_catchment           70.37       0.00      30.47       0.00      39.90       0.00      39.90        4.11     0.10   0.567
  c_120_catchment           70.37       0.00      27.19       0.00      43.18       0.00      43.18        2.12     0.10   0.614
  c_119_catchment           70.37       0.00      28.02       0.00      42.35       0.00      42.35      166.46     6.54   0.602
  c_100_catchment           70.37       0.00      25.77       0.00      44.61       0.00      44.61        2.99     0.18   0.634
  c_118_catchment           70.37       0.00      25.88       0.00      44.50       0.00      44.50        5.03     0.30   0.632
  c_116_catchment           70.37       0.00      26.85       0.00      43.52       0.00      43.52        5.61     0.28   0.618
  c_114_catchment           70.37       0.00      26.04       0.00      44.33       0.00      44.33        2.70     0.16   0.630
  c_112_catchment           70.37       0.00      24.29       0.00      46.09       0.00      46.09       13.14     1.36   0.655
  c_107_catchment           70.37       0.00      28.52       0.00      41.85       0.00      41.85       32.31     1.14   0.595
  c_107_2_catchment         70.37       0.00      27.33       0.00      43.05       0.00      43.05        3.87     0.18   0.612
  c_106_catchment           70.37       0.00      27.26       0.00      43.11       0.00      43.11        4.87     0.22   0.613
  c_99_catchment            70.37       0.00      28.18       0.00      42.19       0.00      42.19       43.75     1.66   0.600
  c_103_catchment           70.37       0.00      25.65       0.00      44.72       0.00      44.72        1.70     0.11   0.636
  c_98_catchment            70.37       0.00      27.41       0.00      42.97       0.00      42.97       11.26     0.50   0.611
  
  
  ******************
  Node Depth Summary
  ******************
  
  ---------------------------------------------------------------------------------
                                 Average  Maximum  Maximum  Time of Max    Reported
                                   Depth    Depth      HGL   Occurrence   Max Depth
  Node                 Type       Meters   Meters   Meters  days hr:min      Meters
  ---------------------------------------------------------------------------------
  Nod_100              JUNCTION     0.64     2.97    17.45     0  00:00        2.97
  Nod_890              JUNCTION     0.62     2.76    15.69     2  17:00        2.75
  Nod_891              JUNCTION     0.55     2.69    15.69     2  17:00        2.68
  Nod_892              JUNCTION     0.49     2.63    15.69     2  17:00        2.63
  Nod_A*HLCMRZ1135     JUNCTION     0.71     2.85    15.69     2  17:00        2.85
  Nod_103              JUNCTION     0.45     1.29    15.26     2  17:00        1.29
  Nod_104              JUNCTION     0.33     1.48    15.26     2  17:00        1.48
  Nod_105              JUNCTION     0.34     1.50    15.26     2  17:00        1.50
  Nod_106              JUNCTION     0.42     1.70    15.27     2  17:00        1.69
  Nod_107              JUNCTION     0.42     1.72    15.27     2  17:00        1.71
  Nod_108              JUNCTION     1.23     9.80    21.00     2  17:06        4.09
  Nod_109              JUNCTION     0.82     5.84    17.36     2  17:06        3.77
  Nod_110              JUNCTION     0.45     2.17    15.71     2  17:00        2.17
  Nod_111              JUNCTION     0.44     2.24    15.71     2  17:00        2.23
  Nod_112              JUNCTION     0.71     2.86    15.70     2  17:00        2.84
  Nod_113              JUNCTION     0.75     2.89    15.69     2  17:00        2.87
  Nod_114              JUNCTION     0.52     2.92    15.69     2  17:06        2.89
  Nod_115              JUNCTION     0.53     3.02    15.72     2  17:06        2.95
  Nod_116              JUNCTION     0.53     3.05    15.72     2  17:06        2.97
  Nod_117              JUNCTION     0.60     3.54    15.81     2  17:06        3.31
  Nod_118              JUNCTION     0.75     3.97    15.88     2  17:06        3.62
  Nod_119              JUNCTION     0.89     5.83    17.27     2  17:06        3.85
  Nod_120              JUNCTION     0.94     5.51    16.88     2  17:06        3.92
  Nod_121              JUNCTION     1.04     5.12    16.38     2  17:06        4.03
  Nod_122              JUNCTION     1.15     4.48    15.62     2  17:06        4.15
  Nod_123              JUNCTION     1.20     4.22    15.31     2  17:06        4.20
  Nod_124              JUNCTION     1.22     4.27    15.28     2  16:59        4.27
  Nod_126              JUNCTION     0.50     1.27    18.44    22  06:41        1.27
  Nod_127              JUNCTION     0.68     1.43    19.44     8  17:50        1.43
  Nod_128              JUNCTION     0.31     0.82    18.54    22  06:43        0.82
  Nod_129              JUNCTION     0.45     0.91    16.55    22  07:15        0.91
  Nod_130              JUNCTION     0.31     1.70    16.76     0  00:05        1.70
  Nod_131              JUNCTION     0.45     1.81    16.35     0  00:05        1.81
  Nod_132              JUNCTION     0.45     1.52    15.85     2  17:06        1.52
  Nod_133              JUNCTION     0.46     1.56    15.84     2  17:05        1.56
  Nod_134              JUNCTION     0.49     1.70    15.80     2  17:04        1.70
  Nod_135              JUNCTION     0.51     1.74    15.79     2  17:03        1.73
  Nod_136              JUNCTION     0.57     1.84    15.77     2  17:02        1.82
  Nod_222              JUNCTION     1.47     4.69    15.89     2  17:06        4.32
  Nod_233              JUNCTION     0.96     4.13    15.65     2  17:06        3.88
  Nod_244              JUNCTION     1.00     4.13    15.57     2  17:06        3.93
  Nod_266              JUNCTION     1.03     4.12    15.49     2  17:06        3.98
  Nod_277              JUNCTION     1.09     4.15    15.41     2  17:06        4.06
  J1                   JUNCTION     1.94     4.00    19.06     0  03:08        4.00
  J119                 JUNCTION   321.03  21069.16  21069.16    22  05:50    21065.98
  cso_Geldrop          OUTFALL      0.00     0.00     4.62     0  00:00        0.00
  cso_gb_136           OUTFALL      0.00     0.00     1.00     0  00:00        0.00
  cso_RZ               OUTFALL      0.00     0.00    16.07     0  00:00        0.00
  cso_ES_1             OUTFALL      0.00     0.00     0.00     0  00:00        0.00
  cso_AALST            OUTFALL      0.00     0.00     0.00     0  00:00        0.00
  out_ES               OUTFALL      0.00     0.00     0.00     0  00:00        0.00
  out_RZ               OUTFALL      0.00     0.00     0.00     0  00:00        0.00
  cso_gb127            OUTFALL      0.00     0.00     0.00     0  00:00        0.00
  cso_c_122            OUTFALL      0.00     0.00     0.00     0  00:00        0.00
  cso_c_119_1          OUTFALL      0.00     0.00     0.00     0  00:00        0.00
  cso_c_112            OUTFALL      0.00     0.00     0.00     0  00:00        0.00
  cso_c_99             OUTFALL      0.00     0.00     0.00     0  00:00        0.00
  cso_c_123            OUTFALL      0.00     0.00     0.00     0  00:00        0.00
  cso_c_119_2          OUTFALL      0.00     0.00     0.00     0  00:00        0.00
  cso_c_119_3          OUTFALL      0.00     0.00     0.00     0  00:00        0.00
  c_24_vr_storage_5    STORAGE      0.00     0.00     0.00    22  04:46        0.00
  c_23_vr_storage_7    STORAGE      0.00     0.00     0.00    22  04:45        0.00
  c_22_vr_storage_5    STORAGE      0.00     0.00     0.00    22  04:45        0.00
  c_21_vr_storage_7    STORAGE      0.00     0.00     0.00    22  04:45        0.00
  c_12_vr_storage_8    STORAGE      0.00     0.00     0.00    22  04:49        0.00
  c_20_vr_storage_13   STORAGE      0.00     0.00     0.00    22  04:50        0.00
  c_19_vr_storage_7    STORAGE      0.00     0.00     0.00    22  04:45        0.00
  c_10_vr_storage_10   STORAGE      0.00     0.00     0.00    22  04:50        0.00
  c_16_vr_storage_20   STORAGE      0.00     0.00     0.00    22  04:55        0.00
  c_15_vr_storage_24   STORAGE      0.00     0.00     0.00    22  04:59        0.00
  c_14_vr_storage_24   STORAGE      0.00     0.00     0.00    22  04:59        0.00
  pipe_ES              STORAGE      0.24     2.56     2.56    22  16:40        2.56
  pipe_Geldrop         STORAGE      0.17     2.86    17.92     8  19:45        2.86
  gb_136               STORAGE      0.06     0.90    17.35     8  20:05        0.90
  c_129_vr_storage_5   STORAGE      0.00     0.00     0.00     8  17:15        0.00
  c_128_vr_storage_5   STORAGE      0.00     0.00     0.00     8  17:15        0.00
  c_1285_vr_storage_5  STORAGE      0.00     0.00     0.00     8  17:15        0.00
  c_127_vr_storage_5   STORAGE      0.00     0.00     0.00     8  17:17        0.00
  c_126_vr_storage_5   STORAGE      0.00     0.00     0.00     8  17:15        0.00
  c_125_vr_storage_5   STORAGE      0.00     0.00     0.00     8  17:10        0.00
  c_124_storage        STORAGE      0.01     0.02    14.24    29  22:00        0.02
  c_136_vr_storage_5   STORAGE      0.00     0.00     0.00     8  18:20        0.00
  c_135_vr_storage_5   STORAGE      0.00     0.00     0.00    11  09:55        0.00
  c_131_vr_storage_5   STORAGE      0.00     0.00     0.00     8  18:16        0.00
  c_130_vr_storage_5   STORAGE      0.00     0.00     0.00     8  17:15        0.00
  c_134_vr_storage_5   STORAGE      0.00     0.00     0.00     8  18:15        0.00
  c_132_vr_storage_5   STORAGE      0.00     0.00     0.00     8  17:15        0.00
  Aalst_gemaal         STORAGE      0.31     2.49     2.49    22  17:40        2.49
  pre_ontvangstkelder  STORAGE     21.58    25.77    15.27     2  17:00       25.77
  c_150_vr_storage_57  STORAGE      0.00     0.01     0.01    22  05:05        0.01
  c_123_vr_storage_40  STORAGE      0.00     0.00     0.00    22  04:56        0.00
  c_143_vr_storage_70  STORAGE      0.00     0.03     0.03    22  05:45        0.03
  c_147_vr_storage_4   STORAGE      0.00     0.00     0.00    22  04:35        0.00
  c_160_vr_storage_8   STORAGE      0.00     0.00     0.00     8  17:10        0.00
  c_145_vr_storage_4   STORAGE      0.00     0.00     0.00     8  17:05        0.00
  c_144_vr_storage_19  STORAGE      0.00     0.00     0.00    22  04:45        0.00
  c_142_vr_storage_35  STORAGE      0.00     0.00     0.00    22  04:55        0.00
  c_148_vr_storage_12  STORAGE      0.00     0.00     0.00    22  04:38        0.00
  c_149_vr_storage_17  STORAGE      0.00     0.00     0.00    22  04:45        0.00
  c_151_vr_storage_22  STORAGE      0.00     0.00     0.00    22  04:45        0.00
  c_161_vr_storage_32  STORAGE      0.00     0.00     0.00    22  04:55        0.00
  c_138_vr_storage_22  STORAGE      0.00     0.00     0.00    22  04:45        0.00
  c_139_vr_storage_8   STORAGE      0.00     0.00     0.00    22  04:37        0.00
  c_137_vr_storage_4   STORAGE      0.00     0.00     0.00     8  17:05        0.00
  c_122_vr_storage_29  STORAGE      0.00     0.00     0.00    22  04:35        0.00
  c_121_vr_storage_12  STORAGE      0.00     0.00     0.00    22  04:40        0.00
  c_120_vr_storage_8   STORAGE      0.00     0.00     0.00    22  04:34        0.00
  c_119_vr_storage_80  STORAGE      0.00     0.02     0.02    22  05:25        0.02
  c_100_vr_storage_10  STORAGE      0.00     0.00     0.00    22  04:30        0.00
  c_118_vr_storage_13  STORAGE      0.00     0.00     0.00    22  04:31        0.00
  c_116_vr_storage_15  STORAGE      0.00     0.00     0.00    22  04:37        0.00
  c_114_vr_storage_10  STORAGE      0.00     0.00     0.00    22  04:30        0.00
  c_112_vr_storage_21  STORAGE      0.00     0.00     0.00    22  04:25        0.00
  c_107_vr_storage_36  STORAGE      0.00     0.00     0.00    22  04:55        0.00
  c_107_2_vr_storage_12 STORAGE      0.00     0.00     0.00    22  04:35        0.00
  c_106_vr_storage_13  STORAGE      0.00     0.00     0.00    22  04:35        0.00
  c_99_vr_storage_41   STORAGE      0.00     0.00     0.00    22  04:55        0.00
  c_103_vr_storage_8   STORAGE      0.00     0.00     0.00    22  04:29        0.00
  c_98_vr_storage_20   STORAGE      0.00     0.00     0.00    22  04:39        0.00
  gb127                STORAGE      0.04     0.94     0.94     8  18:20        0.94
  c_123                STORAGE      0.34     9.77     9.77     8  21:55        9.77
  c_122                STORAGE      1.07     6.36     6.36     8  21:59        6.36
  c_112                STORAGE      0.06     1.73     1.73    22  04:55        1.73
  c_99                 STORAGE      0.04     3.95     3.95    22  06:40        3.95
  c_119_1              STORAGE      0.24     5.07     5.07    22  06:10        5.07
  c_119_2              STORAGE      0.17     7.02     7.02     8  21:30        7.02
  c_119_3              STORAGE      0.19     8.46     8.46     8  22:20        8.46
  
  
  *******************
  Node Inflow Summary
  *******************
  
  -------------------------------------------------------------------------------------------------
                                  Maximum  Maximum                  Lateral       Total        Flow
                                  Lateral    Total  Time of Max      Inflow      Inflow     Balance
                                   Inflow   Inflow   Occurrence      Volume      Volume       Error
  Node                 Type           CMS      CMS  days hr:min    10^6 ltr    10^6 ltr     Percent
  -------------------------------------------------------------------------------------------------
  Nod_100              JUNCTION     0.000   10.019     0  00:00           0         370       0.000
  Nod_890              JUNCTION     0.000    0.724     0  00:31           0        26.6       0.753
  Nod_891              JUNCTION     0.000    0.442     0  00:32           0        14.2       0.660
  Nod_892              JUNCTION     0.000    0.263     0  00:30           0        5.77       0.451
  Nod_A*HLCMRZ1135     JUNCTION     0.000    0.317     0  00:00           0         1.4       2.728
  Nod_103              JUNCTION     0.000    0.817     0  00:05           0         367       0.033
  Nod_104              JUNCTION     0.000    0.592    11  15:55           0         369       0.008
  Nod_105              JUNCTION     0.000    0.558     2  17:05           0         356      -0.012
  Nod_106              JUNCTION     0.000    0.624     2  17:05           0         356       0.000
  Nod_107              JUNCTION     0.000    0.669     2  17:05           0         357       0.442
  Nod_108              JUNCTION     0.000    0.887     2  22:00           0         357      -0.259
  Nod_109              JUNCTION     0.000    1.789     2  21:57           0         363       0.026
  Nod_110              JUNCTION     0.000    2.858     2  17:07           0    1.98e+03       0.009
  Nod_111              JUNCTION     0.000    3.122     2  17:04           0    1.98e+03       0.018
  Nod_112              JUNCTION     0.000    3.153     2  17:04           0       2e+03      -0.004
  Nod_113              JUNCTION     0.000    3.037     2  17:04           0    1.98e+03       0.008
  Nod_114              JUNCTION     0.000    3.033     2  17:04           0    1.98e+03      -0.004
  Nod_115              JUNCTION     0.000    3.033     2  17:04           0    1.98e+03       0.000
  Nod_116              JUNCTION     0.000    3.032     2  17:04           0    1.98e+03       0.002
  Nod_117              JUNCTION     0.000    3.032     2  17:04           0    1.98e+03       0.012
  Nod_118              JUNCTION     0.000    4.384    22  06:29           0    2.39e+03       0.009
  Nod_119              JUNCTION     0.000    1.409    22  07:05           0         368       0.035
  Nod_120              JUNCTION     0.000    1.722     3  04:03           0         371       0.051
  Nod_121              JUNCTION     0.000    1.706     3  04:03           0         377       0.082
  Nod_122              JUNCTION     0.000    2.017     3  04:02           0         386       0.065
  Nod_123              JUNCTION     0.000    4.307     3  04:01           0    2.35e+03       0.010
  Nod_124              JUNCTION     0.000    5.280     8  20:49           0    2.53e+03       0.051
  Nod_126              JUNCTION     0.000    2.100    22  06:57           0    1.74e+03      -0.029
  Nod_127              JUNCTION     0.000    2.100     0  00:05           0    1.74e+03       0.009
  Nod_128              JUNCTION     0.000    2.116    22  05:12           0    1.74e+03      -0.029
  Nod_129              JUNCTION     0.000    3.395     0  00:04           0    1.74e+03      -0.020
  Nod_130              JUNCTION     0.000   10.805     0  00:00           0    1.98e+03       0.001
  Nod_131              JUNCTION     0.000    9.744     0  00:01           0    1.98e+03       0.003
  Nod_132              JUNCTION     0.000    7.133     0  00:05           0    1.98e+03       0.002
  Nod_133              JUNCTION     0.000    5.318     0  00:05           0    1.98e+03       0.002
  Nod_134              JUNCTION     0.000    4.519     0  00:06           0    1.98e+03       0.003
  Nod_135              JUNCTION     0.000    3.567     0  00:07           0    1.98e+03       0.003
  Nod_136              JUNCTION     0.000    3.269     0  00:09           0    1.98e+03       0.039
  Nod_222              JUNCTION     0.000    5.852     8  19:21           0    2.39e+03       0.006
  Nod_233              JUNCTION     0.000    3.031     2  17:04           0    1.98e+03      -0.005
  Nod_244              JUNCTION     0.000    3.031     2  17:04           0    1.98e+03       0.005
  Nod_266              JUNCTION     0.000    3.031     2  17:04           0    1.98e+03       0.009
  Nod_277              JUNCTION     0.000    3.030     2  17:04           0    1.98e+03       0.015
  J1                   JUNCTION     0.000    0.800     8  17:10           0         480      -1.456
  J119                 JUNCTION     0.000    7.014    22  05:45           0         256      -3.394
  cso_Geldrop          OUTFALL      0.000    2.548     8  19:45           0        15.6       0.000
  cso_gb_136           OUTFALL      0.000    0.744     8  20:05           0        6.69       0.000
  cso_RZ               OUTFALL      0.000    0.000     0  00:00           0           0       0.000 ltr
  cso_ES_1             OUTFALL      0.000    1.686    22  16:40           0        9.08       0.000
  cso_AALST            OUTFALL      0.000    1.526    22  17:40           0        10.7       0.000
  out_ES               OUTFALL      0.000    3.888     8  20:05           0    2.51e+03       0.000
  out_RZ               OUTFALL      0.000    3.482     2  17:00           0    2.33e+03       0.000
  cso_gb127            OUTFALL      0.000    2.618     8  18:20           0        33.5       0.000
  cso_c_122            OUTFALL      0.000    0.000     0  00:00           0           0       0.000 ltr
  cso_c_119_1          OUTFALL      0.000    2.118    22  06:10           0        22.3       0.000
  cso_c_112            OUTFALL      0.000    0.725    22  04:55           0        2.56       0.000
  cso_c_99             OUTFALL      0.000    0.000     0  00:00           0           0       0.000 ltr
  cso_c_123            OUTFALL      0.000    0.000     0  00:00           0           0       0.000 ltr
  cso_c_119_2          OUTFALL      0.000    0.275     8  21:30           0       0.409       0.000
  cso_c_119_3          OUTFALL      0.000    0.000     0  00:00           0           0       0.000 ltr
  c_24_vr_storage_5    STORAGE     18.744   19.565    22  04:45    2.47e+03    2.53e+03      -0.000
  c_23_vr_storage_7    STORAGE      0.026    0.026    22  04:45        3.82        3.82      -0.000
  c_22_vr_storage_5    STORAGE      0.013    0.013    22  04:45       0.624       0.624      -0.000
  c_21_vr_storage_7    STORAGE      0.027    0.027    22  04:45        3.74        3.74      -0.000
  c_12_vr_storage_8    STORAGE      0.032    0.032    22  04:45        5.57        5.57      -0.000
  c_20_vr_storage_13   STORAGE      0.084    0.084    22  04:45         3.9         3.9      -0.000
  c_19_vr_storage_7    STORAGE      0.029    0.029    22  04:45        3.31        3.31      -0.000
  c_10_vr_storage_10   STORAGE      0.029    0.029    22  04:50        2.18        2.18      -0.000
  c_16_vr_storage_20   STORAGE      0.221    0.221    22  04:45        10.3        10.3      -0.000
  c_15_vr_storage_24   STORAGE      0.285    0.285    22  04:45        16.1        16.1      -0.000
  c_14_vr_storage_24   STORAGE      0.298    0.298    22  04:45        13.9        13.9      -0.000
  pipe_ES              STORAGE      0.000   19.447    22  04:45           0    2.53e+03       0.000
  pipe_Geldrop         STORAGE      0.000    6.534     8  17:15           0         496      -0.000
  gb_136               STORAGE      0.000    1.283     8  18:20           0         134      -0.000
  c_129_vr_storage_5   STORAGE      0.163    0.163     8  17:15        2.87        2.87      -0.000
  c_128_vr_storage_5   STORAGE      5.933    6.580     8  17:15         348         496      -0.000
  c_1285_vr_storage_5  STORAGE      0.168    0.168     8  17:15         4.5         4.5      -0.000
  c_127_vr_storage_5   STORAGE      5.178    6.159     8  17:15        98.6         174       0.000
  c_126_vr_storage_5   STORAGE      0.561    0.981     8  17:15          71          75      -0.000
  c_125_vr_storage_5   STORAGE      0.424    0.424     8  17:10        3.94        3.94      -0.000
  c_124_storage        STORAGE      0.224    0.224     8  17:10        11.5        24.5       0.011
  c_136_vr_storage_5   STORAGE      0.600    1.311     8  18:15        82.3         134       0.000
  c_135_vr_storage_5   STORAGE      0.285    0.285     8  18:15        19.8        19.8      -0.000
  c_131_vr_storage_5   STORAGE      0.240    0.300     8  18:15          19        23.4       0.000
  c_130_vr_storage_5   STORAGE      0.063    0.063     8  17:15        4.45        4.45      -0.000
  c_134_vr_storage_5   STORAGE      0.070    0.070     8  18:15        4.57        4.57      -0.000
  c_132_vr_storage_5   STORAGE      0.062    0.062     8  17:15        3.83        3.83      -0.000
  Aalst_gemaal         STORAGE      0.000   14.303    22  05:55           0    1.74e+03      -0.380
  pre_ontvangstkelder  STORAGE      0.000    6.170    11  10:43           0    2.53e+03       0.049
  c_150_vr_storage_57  STORAGE      5.523    5.523    22  04:35         156         156      -0.000
  c_123_vr_storage_40  STORAGE      2.308    2.308    22  04:35        78.8        78.8      -0.000
  c_143_vr_storage_70  STORAGE      3.301    8.381    22  04:55         369         691       0.000
  c_147_vr_storage_4   STORAGE      0.130    0.130     8  17:05        2.36        2.36      -0.000
  c_160_vr_storage_8   STORAGE      0.188    0.188     8  17:05         135         135      -0.000
  c_145_vr_storage_4   STORAGE      0.059    0.059     8  17:05         2.3         2.3      -0.000
  c_144_vr_storage_19  STORAGE      0.480    0.480    22  04:35        16.5        16.5      -0.000
  c_142_vr_storage_35  STORAGE      1.550    1.550    22  04:35        61.7        61.7      -0.000
  c_148_vr_storage_12  STORAGE      0.306    0.306    22  04:35        8.45        8.45      -0.000
  c_149_vr_storage_17  STORAGE      0.367    0.367    22  04:35        9.71        9.71      -0.000
  c_151_vr_storage_22  STORAGE      0.683    0.683    22  04:35        17.6        17.6      -0.000
  c_161_vr_storage_32  STORAGE      1.268    1.268    22  04:40        35.8        35.8      -0.000
  c_138_vr_storage_22  STORAGE      0.630    0.799    22  04:35        25.2        32.7      -0.000
  c_139_vr_storage_8   STORAGE      0.131    0.131    22  04:35        2.52        2.52      -0.000
  c_137_vr_storage_4   STORAGE      0.060    0.060     8  17:05           5           5      -0.000
  c_122_vr_storage_29  STORAGE      1.667    1.667     8  17:00        36.1        36.1      -0.000
  c_121_vr_storage_12  STORAGE      0.105    0.204    22  04:35        24.8          30       0.000
  c_120_vr_storage_8   STORAGE      0.099    0.099    22  04:30         5.2         5.2      -0.000
  c_119_vr_storage_80  STORAGE      6.556    7.039    22  04:30         247         256      -0.000
  c_100_vr_storage_10  STORAGE      0.185    0.185    22  04:25         4.7         4.7      -0.000
  c_118_vr_storage_13  STORAGE      0.304    0.304    22  04:30        5.03        5.03      -0.000
  c_116_vr_storage_15  STORAGE      0.282    0.439    22  04:30        9.11        13.7      -0.000
  c_114_vr_storage_10  STORAGE      0.159    0.159    22  04:30        4.54        4.54      -0.000
  c_112_vr_storage_21  STORAGE      1.366    1.366     8  17:00        17.8        17.8      -0.000
  c_107_vr_storage_36  STORAGE      1.264    1.646    22  04:35         356         397       0.000
  c_107_2_vr_storage_12 STORAGE      0.176    0.176    22  04:30         4.6         4.6      -0.000
  c_106_vr_storage_13  STORAGE      0.235    0.235    22  04:30        35.8        35.8      -0.000
  c_99_vr_storage_41   STORAGE      1.665    1.773    22  04:30        62.3        65.6      -0.000
  c_103_vr_storage_8   STORAGE      0.108    0.108    22  04:25        3.31        3.31      -0.000
  c_98_vr_storage_20   STORAGE      0.504    0.504    22  04:30        18.4        18.4      -0.000
  gb127                STORAGE      0.000    5.682     8  17:15           0         174      -0.000
  c_123                STORAGE      0.000    2.307    22  05:10           0        78.8      -0.001
  c_122                STORAGE      0.000    1.666     8  17:25           0        36.1      -0.000
  c_112                STORAGE      0.000    1.366     8  17:15           0        17.8      -0.001
  c_99                 STORAGE      0.000    1.772    22  05:05           0        65.6      -0.002
  c_119_1              STORAGE      0.000   10.000     0  00:00           0         106      -0.001
  c_119_2              STORAGE      0.000   10.000     0  00:00           0        74.8      -0.001
  c_119_3              STORAGE      0.000   10.000     0  00:00           0        85.1      -0.001
  
  
  **********************
  Node Surcharge Summary
  **********************
  
  Surcharging occurs when water rises above the top of the highest conduit.
  ---------------------------------------------------------------------
                                               Max. Height   Min. Depth
                                   Hours       Above Crown    Below Rim
  Node                 Type      Surcharged         Meters       Meters
  ---------------------------------------------------------------------
  Nod_100              JUNCTION       71.13          1.750        0.000
  Nod_890              JUNCTION        8.75          0.663        0.237
  Nod_891              JUNCTION        2.95          0.592        0.178
  Nod_892              JUNCTION        2.56          0.529        1.371
  Nod_104              JUNCTION        0.70          0.260        0.520
  Nod_105              JUNCTION        0.76          0.280        0.500
  Nod_106              JUNCTION        1.35          0.476        0.304
  Nod_107              JUNCTION        1.36          0.497        0.283
  Nod_108              JUNCTION       16.92          6.930        0.000
  Nod_109              JUNCTION       78.46          4.045       22.635
  Nod_111              JUNCTION        0.39          0.141        5.289
  Nod_112              JUNCTION        1.90          0.426        5.304
  Nod_113              JUNCTION        2.15          0.470        5.310
  Nod_114              JUNCTION       24.14          0.822        5.308
  Nod_115              JUNCTION       50.78          1.220        5.280
  Nod_116              JUNCTION       51.90          1.252        5.278
  Nod_117              JUNCTION       65.77          1.735        5.195
  Nod_118              JUNCTION       73.71          2.083        5.117
  Nod_119              JUNCTION       84.15          4.030       22.730
  Nod_120              JUNCTION       88.78          3.712       23.118
  Nod_121              JUNCTION       94.39          3.320       23.620
  Nod_122              JUNCTION      108.64          2.684       24.376
  Nod_123              JUNCTION      113.95          2.423       24.687
  Nod_124              JUNCTION      131.46          2.468       24.722
  Nod_222              JUNCTION       79.60          2.242        5.108
  Nod_233              JUNCTION       89.28          2.329       24.351
  Nod_244              JUNCTION       92.32          2.330       24.430
  Nod_266              JUNCTION       94.25          2.316       24.514
  Nod_277              JUNCTION       97.38          2.347       24.593
  J1                   JUNCTION      720.00          4.000        0.000
  J119                 JUNCTION      720.00      21069.161    99978929.839
  
  
  *********************
  Node Flooding Summary
  *********************
  
  Flooding refers to all water that overflows a node, whether it ponds or not.
  --------------------------------------------------------------------------
                                                             Total   Maximum
                                 Maximum   Time of Max       Flood    Ponded
                        Hours       Rate    Occurrence      Volume     Depth
  Node                 Flooded       CMS   days hr:min    10^6 ltr    Meters
  --------------------------------------------------------------------------
  Nod_100                 0.21     9.992      0  00:00       2.797     0.000
  Nod_108                 0.01     0.463      2  17:06       0.001     0.000
  J1                     84.66     0.662      8  17:10       1.480     0.000
  
  
  **********************
  Storage Volume Summary
  **********************
  
  ------------------------------------------------------------------------------------------------
                         Average    Avg   Evap  Exfil     Maximum    Max    Time of Max    Maximum
                          Volume   Pcnt   Pcnt   Pcnt      Volume   Pcnt     Occurrence    Outflow
  Storage Unit           1000 m³   Full   Loss   Loss     1000 m³   Full    days hr:min        CMS
  ------------------------------------------------------------------------------------------------
  c_24_vr_storage_5        0.171    0.0    0.0    0.0       2.979    0.0      22  04:46     19.447
  c_23_vr_storage_7        0.000    0.0    0.0    0.0       0.004    0.0      22  04:45      0.026
  c_22_vr_storage_5        0.000    0.0    0.0    0.0       0.002    0.0      22  04:45      0.013
  c_21_vr_storage_7        0.000    0.0    0.0    0.0       0.004    0.0      22  04:45      0.027
  c_12_vr_storage_8        0.001    0.0    0.0    0.0       0.014    0.0      22  04:49      0.032
  c_20_vr_storage_13       0.001    0.0    0.0    0.0       0.062    0.0      22  04:50      0.084
  c_19_vr_storage_7        0.000    0.0    0.0    0.0       0.004    0.0      22  04:45      0.029
  c_10_vr_storage_10       0.000    0.0    0.0    0.0       0.013    0.0      22  04:50      0.029
  c_16_vr_storage_20       0.004    0.0    0.0    0.0       0.229    0.0      22  04:55      0.221
  c_15_vr_storage_24       0.008    0.0    0.0    0.0       0.375    0.0      22  04:59      0.285
  c_14_vr_storage_24       0.007    0.0    0.0    0.0       0.393    0.0      22  04:59      0.298
  pipe_ES                 15.763    8.0    0.0    0.0     168.843   85.3      22  16:40      5.574
  pipe_Geldrop             1.705    3.4    0.0    0.0      28.567   57.1       8  19:45      3.348
  gb_136                   0.589    3.9    0.0    0.0       8.969   59.8       8  20:05      0.935
  c_129_vr_storage_5       0.000    0.0    0.0    0.0       0.020    0.0       8  17:15      0.163
  c_128_vr_storage_5       0.048    0.0    0.0    0.0       0.931    0.0       8  17:15      6.534
  c_1285_vr_storage_5      0.000    0.0    0.0    0.0       0.021    0.0       8  17:15      0.168
  c_127_vr_storage_5       0.007    0.0    0.0    0.0       0.832    0.0       8  17:17      5.682
  c_126_vr_storage_5       0.001    0.0    0.0    0.0       0.193    0.0       8  17:15      0.981
  c_125_vr_storage_5       0.000    0.0    0.0    0.0       0.053    0.0       8  17:10      0.420
  c_124_storage           12.229    0.1    0.0    0.0      23.088    0.2      29  22:00      0.002
  c_136_vr_storage_5       0.008    0.0    0.0    0.0       0.285    0.0       8  18:20      1.283
  c_135_vr_storage_5       0.001    0.0    0.0    0.0       0.037    0.0      11  09:55      0.285
  c_131_vr_storage_5       0.002    0.0    0.0    0.0       0.049    0.0       8  18:16      0.297
  c_130_vr_storage_5       0.000    0.0    0.0    0.0       0.008    0.0       8  17:15      0.062
  c_134_vr_storage_5       0.000    0.0    0.0    0.0       0.009    0.0       8  18:15      0.070
  c_132_vr_storage_5       0.000    0.0    0.0    0.0       0.008    0.0       8  17:15      0.062
  Aalst_gemaal            11.360    7.8    0.0    0.0     143.732   99.2      22  17:40      3.626
  pre_ontvangstkelder      0.216   74.4    0.0    0.0       0.258   88.8       2  17:00      4.398
  c_150_vr_storage_57      0.150    0.0    0.0    0.0      14.236    0.1      22  05:05      5.522
  c_123_vr_storage_40      0.063    0.0    0.0    0.0       4.666    0.0      22  04:56      2.307
  c_143_vr_storage_70      0.981    0.0    0.0    0.0      29.442    0.3      22  05:45      8.272
  c_147_vr_storage_4       0.000    0.0    0.0    0.0       0.019    0.0      22  04:35      0.129
  c_160_vr_storage_8       0.025    0.0    0.0    0.0       0.082    0.0       8  17:10      0.187
  c_145_vr_storage_4       0.000    0.0    0.0    0.0       0.008    0.0       8  17:05      0.059
  c_144_vr_storage_19      0.006    0.0    0.0    0.0       0.490    0.0      22  04:45      0.479
  c_142_vr_storage_35      0.043    0.0    0.0    0.0       2.802    0.0      22  04:55      1.549
  c_148_vr_storage_12      0.001    0.0    0.0    0.0       0.136    0.0      22  04:38      0.306
  c_149_vr_storage_17      0.003    0.0    0.0    0.0       0.271    0.0      22  04:45      0.367
  c_151_vr_storage_22      0.007    0.0    0.0    0.0       0.695    0.0      22  04:45      0.682
  c_161_vr_storage_32      0.022    0.0    0.0    0.0       1.977    0.0      22  04:55      1.268
  c_138_vr_storage_22      0.012    0.0    0.0    0.0       0.837    0.0      22  04:45      0.794
  c_139_vr_storage_8       0.000    0.0    0.0    0.0       0.058    0.0      22  04:37      0.131
  c_137_vr_storage_4       0.000    0.0    0.0    0.0       0.008    0.0       8  17:05      0.060
  c_122_vr_storage_29      0.021    0.0    0.0    0.0       2.523    0.0      22  04:35      1.666
  c_121_vr_storage_12      0.002    0.0    0.0    0.0       0.101    0.0      22  04:40      0.202
  c_120_vr_storage_8       0.001    0.0    0.0    0.0       0.043    0.0      22  04:34      0.099
  c_119_vr_storage_80      0.425    0.0    0.0    0.0      24.263    0.2      22  05:25      7.014
  c_100_vr_storage_10      0.001    0.0    0.0    0.0       0.082    0.0      22  04:30      0.185
  c_118_vr_storage_13      0.001    0.0    0.0    0.0       0.224    0.0      22  04:31      0.304
  c_116_vr_storage_15      0.004    0.0    0.0    0.0       0.340    0.0      22  04:37      0.435
  c_114_vr_storage_10      0.001    0.0    0.0    0.0       0.070    0.0      22  04:30      0.159
  c_112_vr_storage_21      0.006    0.0    0.0    0.0       1.202    0.0      22  04:25      1.366
  c_107_vr_storage_36      0.044    0.0    0.0    0.0       2.751    0.0      22  04:55      1.624
  c_107_2_vr_storage_12     0.001    0.0    0.0    0.0       0.077    0.0      22  04:35      0.176
  c_106_vr_storage_13      0.002    0.0    0.0    0.0       0.162    0.0      22  04:35      0.235
  c_99_vr_storage_41       0.052    0.0    0.0    0.0       3.544    0.0      22  04:55      1.772
  c_103_vr_storage_8       0.001    0.0    0.0    0.0       0.048    0.0      22  04:29      0.108
  c_98_vr_storage_20       0.007    0.0    0.0    0.0       0.503    0.0      22  04:39      0.504
  gb127                    0.397    2.1    0.0    0.0       9.381   50.4       8  18:20      2.933
  c_123                    0.341    1.1    0.0    0.0       9.773   32.6       8  21:55      0.284
  c_122                    1.068   10.7    0.0    0.0       6.357   63.6       8  21:59      0.031
  c_112                    0.057    2.8    0.0    0.0       1.733   86.7      22  04:55      0.786
  c_99                     0.043    0.2    0.0    0.0       3.952   19.8      22  06:40      0.556
  c_119_1                  0.237    2.4    0.0    0.0       5.068   50.7      22  06:10      2.361
  c_119_2                  0.166    1.7    0.0    0.0       7.017   70.2       8  21:30      0.615
  c_119_3                  0.194    1.0    0.0    0.0       8.464   42.3       8  22:20      0.389
  
  
  ***********************
  Outfall Loading Summary
  ***********************
  
  -----------------------------------------------------------
                         Flow       Avg       Max       Total
                         Freq      Flow      Flow      Volume
  Outfall Node           Pcnt       CMS       CMS    10^6 ltr
  -----------------------------------------------------------
  cso_Geldrop            0.99     0.609     2.548      15.581
  cso_gb_136             1.45     0.178     0.744       6.688
  cso_RZ                 0.00     0.000     0.000       0.000
  cso_ES_1               0.39     0.890     1.686       9.082
  cso_AALST              0.55     0.745     1.526      10.686
  out_ES                99.57     0.974     3.888    2514.539
  out_RZ               100.00     0.900     3.482    2331.760
  cso_gb127              1.54     0.841     2.618      33.476
  cso_c_122              0.00     0.000     0.000       0.000
  cso_c_119_1            1.54     0.560     2.118      22.292
  cso_c_112              0.66     0.149     0.725       2.563
  cso_c_99               0.00     0.000     0.000       0.000
  cso_c_123              0.00     0.000     0.000       0.000
  cso_c_119_2            0.13     0.120     0.275       0.409
  cso_c_119_3            0.00     0.000     0.000       0.000
  -----------------------------------------------------------
  System                13.79     5.966    11.132    4947.076
  
  
  ********************
  Link Flow Summary
  ********************
  
  -----------------------------------------------------------------------------
                                 Maximum  Time of Max   Maximum    Max/    Max/
                                  |Flow|   Occurrence   |Veloc|    Full    Full
  Link                 Type          CMS  days hr:min     m/sec    Flow   Depth
  -----------------------------------------------------------------------------
  Con_158              CONDUIT     0.442     0  00:32      0.90    0.01    1.00
  Con_159              CONDUIT     0.263     0  00:30      0.40    0.04    1.00
  Con_160              CONDUIT     0.317     0  00:00      1.04    0.02    1.00
  Con_101              CONDUIT     0.817     0  00:05      0.91    2.54    0.84
  Con_102              CONDUIT     0.592    11  15:55      0.67    1.30    1.00
  Con_103              CONDUIT     0.624     2  17:05      0.77    0.82    1.00
  Con_104              CONDUIT     0.558     2  17:05      1.51    0.56    1.00
  Con_105              CONDUIT     0.669     2  17:05      0.86    1.43    1.00
  Con_106              CONDUIT     0.794     2  17:06      0.86    1.03    1.00
  Con_107              CONDUIT     1.261     3  04:06      0.77    0.31    1.00
  Con_108              CONDUIT     1.737     2  21:57      1.30    0.39    1.00
  Con_109              CONDUIT     3.122     2  17:04      1.09    0.53    1.00
  Con_110              CONDUIT     3.153     2  17:04      1.21    0.49    1.00
  Con_157              CONDUIT     0.724     0  00:31      0.91    0.02    1.00
  Con_111              CONDUIT     3.037     2  17:04      0.80    0.53    1.00
  Con_112              CONDUIT     3.033     2  17:04      1.01    0.41    1.00
  Con_113              CONDUIT     3.033     2  17:04      1.20    0.70    1.00
  Con_114              CONDUIT     3.032     2  17:04      1.19    0.77    1.00
  Con_115              CONDUIT     3.032     2  17:04      1.17    0.73    1.00
  Con_116              CONDUIT     3.032     2  17:04      1.21    0.73    1.00
  Con_117              CONDUIT     5.852     8  19:21      2.13    0.39    1.00
  Con_118              CONDUIT     1.722     3  04:03      1.08    0.44    1.00
  Con_119              CONDUIT     1.706     3  04:03      0.87    0.34    1.00
  Con_120              CONDUIT     2.017     3  04:02      0.81    0.42    1.00
  Con_121              CONDUIT     2.057     3  04:01      1.02    0.41    1.00
  Con_122              CONDUIT     4.166     3  04:01      3.41    0.90    1.00
  Con_123              CONDUIT     6.170    11  10:43      6.72    0.07    1.00
  Con_125              CONDUIT     2.100    22  06:56      1.01    0.91    0.73
  Con_126              CONDUIT     2.116    22  05:12      1.06    1.45    0.74
  Con_127              CONDUIT     2.100    22  06:57      1.72    0.33    0.70
  Con_128              CONDUIT     2.554     0  00:04      1.56    1.07    0.70
  Con_129              CONDUIT     9.744     0  00:01      4.13    1.27    0.88
  Con_130              CONDUIT     7.133     0  00:05      1.83    1.50    0.72
  Con_140              CONDUIT     5.318     0  00:05      2.11    1.00    0.74
  Con_141              CONDUIT     4.519     0  00:06      1.59    0.95    0.78
  Con_142              CONDUIT     3.567     0  00:07      1.58    0.75    0.82
  Con_143              CONDUIT     3.269     0  00:09      1.74    0.68    0.85
  Con_144              CONDUIT     2.858     2  17:07      1.00    0.77    0.91
  Con_152              CONDUIT     3.031     2  17:04      1.09    1.13    1.00
  Con_153              CONDUIT     3.031     2  17:04      1.08    1.06    1.00
  Con_154              CONDUIT     3.031     2  17:04      1.14    1.18    1.00
  Con_155              CONDUIT     3.030     2  17:04      1.10    0.93    1.00
  Con_156              CONDUIT     3.030     2  17:04      1.37    0.82    1.00
  eeneind_out          CONDUIT     0.072     2  17:00      2.89    0.78    0.55
  P_c_24_d_5           PUMP       19.447    22  04:45              1.94
  P_c_23_d_7           PUMP        0.026    22  04:45              0.00
  P_c_22_d_5           PUMP        0.013    22  04:45              0.00
  P_c_21_d_7           PUMP        0.027    22  04:45              0.00
  P_c_12_d_8           PUMP        0.032    22  04:50              0.00
  P_c_20_d_13          PUMP        0.084    22  04:55              0.01
  P_c_19_d_7           PUMP        0.029    22  04:45              0.00
  P_c_10_d_10          PUMP        0.029    22  04:55              0.00
  P_c_16_d_20          PUMP        0.221    22  05:00              0.02
  P_c_15_d_24          PUMP        0.285    22  05:05              0.03
  P_c_14_d_24          PUMP        0.298    22  05:05              0.03
  P_c_129_d_5          PUMP        0.163     8  17:15              0.02
  P_c_128_d_5          PUMP        6.534     8  17:15              0.65
  P_c_1285_d_5         PUMP        0.168     8  17:15              0.02
  P_c_127_d_5          PUMP        5.682     8  17:15              0.57
  P_c_126_d_5          PUMP        0.981     8  17:15              0.10
  P_c_125_d_5          PUMP        0.420     8  17:10              0.04
  P_c_136_d_5          PUMP        1.283     8  18:20              0.13
  P_c_135_d_5          PUMP        0.285     8  18:15              0.03
  P_c_131_d_5          PUMP        0.297     8  18:15              0.03
  P_c_130_d_5          PUMP        0.062     8  17:15              0.01
  P_c_134_d_5          PUMP        0.070     8  18:15              0.01
  P_c_132_d_5          PUMP        0.062     8  17:15              0.01
  Con_1119.1           PUMP        0.191     8  17:10              1.00
  P_riool_zuid_out     PUMP        3.482     2  17:00              0.74
  P_eindhoven_out      PUMP        3.888     8  20:05              1.00
  P_c_150_d_57         PUMP        5.522    22  05:25              0.55
  P_c_123_d_40         PUMP        2.307    22  05:10              0.23
  P_c_143_d_70         PUMP        8.272    22  06:05              0.83
  P_c_147_d_4          PUMP        0.129     8  17:05              0.01
  P_c_160_d_8          PUMP        0.187     8  17:10              0.02
  P_c_145_d_4          PUMP        0.059     8  17:05              0.01
  P_c_144_d_19         PUMP        0.479    22  04:50              0.05
  P_c_142_d_35         PUMP        1.549    22  05:05              0.15
  P_c_148_d_12         PUMP        0.306    22  04:40              0.03
  P_c_149_d_17         PUMP        0.367    22  04:50              0.04
  P_c_151_d_22         PUMP        0.682    22  04:50              0.07
  P_c_161_d_32         PUMP        1.268    22  05:05              0.13
  P_c_138_d_22         PUMP        0.794    22  04:55              0.08
  P_c_139_d_8          PUMP        0.131    22  04:40              0.01
  P_c_137_d_4          PUMP        0.060     8  17:05              0.01
  P_c_122_d_29         PUMP        1.666     8  17:25              0.17
  P_c_121_d_12         PUMP        0.202    22  04:45              0.02
  P_c_120_d_8          PUMP        0.099    22  04:35              0.01
  P_c_119_d_80         PUMP        7.014    22  05:45              0.70
  P_c_100_d_10         PUMP        0.185    22  04:30              0.02
  P_c_118_d_13         PUMP        0.304    22  04:40              0.03
  P_c_116_d_15         PUMP        0.435    22  04:40              0.04
  P_c_114_d_10         PUMP        0.159    22  04:35              0.02
  P_c_112_d_21         PUMP        1.366     8  17:15              0.14
  P_c_107_d_36         PUMP        1.624    22  05:05              0.16
  P_c_107_2_d_12       PUMP        0.176    22  04:35              0.02
  P_c_106_d_13         PUMP        0.235    22  04:40              0.02
  P_c_99_d_41          PUMP        1.772    22  05:05              0.18
  P_c_103_d_8          PUMP        0.108    22  04:30              0.01
  P_c_98_d_20          PUMP        0.504    22  04:45              0.05
  P_aalst_1            PUMP        0.560     0  00:05              1.00
  P_aalst_2            PUMP        0.560     0  00:05              1.00
  P_aalst_3            PUMP        0.490     0  00:05              1.00
  P_aalst_4            PUMP        0.490     0  00:00              1.00
  P_pipe_Geldrop       PUMP        0.800     8  17:10              1.00
  P_gb127              PUMP        0.316     2  10:00              1.00
  P_c_99               PUMP        0.556     8  17:30              1.00
  P_c_112              PUMP        0.061     2  09:20              1.00
  P_c_119_1            PUMP        0.243     0  00:00              1.00
  P_c_122              PUMP        0.031     2  09:30              1.00
  P_c_123              PUMP        0.284     2  10:30              1.00
  P_c_119_2            PUMP        0.340     0  00:00              1.00
  P_c_119_3            PUMP        0.389     0  00:00              1.00
  P_c_119_fr_040       PUMP       10.000     0  00:00              1.00
  P_c_119_fr_028       PUMP       10.000     0  00:00              1.00
  P_c_119_fr_032       PUMP       10.000     0  00:00              1.00
  P_geldrop_split_1    PUMP       10.000     0  00:00              1.00
  P_geldrop_split_2    PUMP       10.000     0  00:00              1.00
  weir_gb_136          WEIR        0.744     8  20:05                      0.03
  Con_A*HLCMRZ1135.1   WEIR        0.000     0  00:00                      0.00
  weir_ES              WEIR        1.686    22  16:40                      0.06
  Aalst_weir           WEIR        1.526    22  17:40                      0.05
  weir_gb127           WEIR        2.618     8  18:20                      0.08
  weir_pipe_Geldrop    WEIR        2.548     8  19:45                      0.08
  weir_c_123           WEIR        0.000     0  00:00                      0.00
  weir_c_99            WEIR        0.000     0  00:00                      0.00
  weir_c_112           WEIR        0.725    22  04:55                      0.03
  weir_c_119_1         WEIR        2.118    22  06:10                      0.07
  weir_c_122           WEIR        0.000     0  00:00                      0.00
  weir_c_119_2         WEIR        0.275     8  21:30                      0.02
  weir_c_119_3         WEIR        0.000     0  00:00                      0.00
  
  
  ***************************
  Flow Classification Summary
  ***************************
  
  -------------------------------------------------------------------------------------
                      Adjusted    ---------- Fraction of Time in Flow Class ---------- 
                       /Actual         Up    Down  Sub   Sup   Up    Down  Norm  Inlet 
  Conduit               Length    Dry  Dry   Dry   Crit  Crit  Crit  Crit  Ltd   Ctrl  
  -------------------------------------------------------------------------------------
  Con_158                 1.00   0.00  0.00  0.00  1.00  0.00  0.00  0.00  0.00  0.00
  Con_159                 1.00   0.00  0.00  0.00  1.00  0.00  0.00  0.00  0.00  0.00
  Con_160                 1.00   0.00  0.00  0.00  1.00  0.00  0.00  0.00  0.00  0.00
  Con_101                 1.00   0.00  0.00  0.00  0.82  0.00  0.00  0.18  0.00  0.00
  Con_102                 1.00   0.00  0.00  0.00  1.00  0.00  0.00  0.00  0.00  0.00
  Con_103                 1.00   0.00  0.00  0.00  1.00  0.00  0.00  0.00  0.41  0.00
  Con_104                 1.00   0.00  0.00  0.00  1.00  0.00  0.00  0.00  0.00  0.00
  Con_105                 1.00   0.00  0.00  0.00  1.00  0.00  0.00  0.00  0.00  0.00
  Con_106                 1.00   0.00  0.00  0.00  0.13  0.00  0.00  0.87  0.05  0.00
  Con_107                 1.00   0.00  0.00  0.00  1.00  0.00  0.00  0.00  0.13  0.00
  Con_108                 1.00   0.00  0.00  0.00  1.00  0.00  0.00  0.00  0.18  0.00
  Con_109                 1.00   0.00  0.00  0.00  1.00  0.00  0.00  0.00  0.00  0.00
  Con_110                 1.00   0.00  0.00  0.00  1.00  0.00  0.00  0.00  0.01  0.00
  Con_157                 1.00   0.00  0.00  0.00  1.00  0.00  0.00  0.00  0.00  0.00
  Con_111                 1.00   0.00  0.00  0.00  1.00  0.00  0.00  0.00  0.00  0.00
  Con_112                 1.00   0.00  0.00  0.00  1.00  0.00  0.00  0.00  0.82  0.00
  Con_113                 1.00   0.00  0.00  0.00  1.00  0.00  0.00  0.00  0.00  0.00
  Con_114                 1.00   0.00  0.00  0.00  1.00  0.00  0.00  0.00  0.00  0.00
  Con_115                 1.00   0.00  0.00  0.00  1.00  0.00  0.00  0.00  0.65  0.00
  Con_116                 1.00   0.00  0.00  0.00  1.00  0.00  0.00  0.00  0.28  0.00
  Con_117                 1.00   0.00  0.00  0.00  1.00  0.00  0.00  0.00  0.08  0.00
  Con_118                 1.00   0.00  0.00  0.00  1.00  0.00  0.00  0.00  0.00  0.00
  Con_119                 1.00   0.00  0.00  0.00  1.00  0.00  0.00  0.00  0.15  0.00
  Con_120                 1.00   0.00  0.00  0.00  1.00  0.00  0.00  0.00  0.04  0.00
  Con_121                 1.00   0.00  0.00  0.00  1.00  0.00  0.00  0.00  0.00  0.00
  Con_122                 1.00   0.00  0.00  0.00  0.85  0.15  0.00  0.00  0.00  0.00
  Con_123                 1.00   0.00  0.00  0.00  0.99  0.00  0.00  0.00  0.15  0.00
  Con_125                 1.00   0.00  0.00  0.00  1.00  0.00  0.00  0.00  0.71  0.00
  Con_126                 1.00   0.00  0.00  0.00  1.00  0.00  0.00  0.00  0.00  0.00
  Con_127                 1.00   0.00  0.00  0.00  1.00  0.00  0.00  0.00  0.84  0.00
  Con_128                 1.00   0.00  0.00  0.00  0.00  0.00  0.00  1.00  0.00  0.00
  Con_129                 1.00   0.00  0.00  0.00  1.00  0.00  0.00  0.00  0.84  0.00
  Con_130                 1.00   0.00  0.00  0.00  1.00  0.00  0.00  0.00  0.02  0.00
  Con_140                 1.00   0.00  0.00  0.00  1.00  0.00  0.00  0.00  0.00  0.00
  Con_141                 1.00   0.00  0.00  0.00  1.00  0.00  0.00  0.00  0.20  0.00
  Con_142                 1.00   0.00  0.00  0.00  1.00  0.00  0.00  0.00  0.00  0.00
  Con_143                 1.00   0.00  0.00  0.00  1.00  0.00  0.00  0.00  0.00  0.00
  Con_144                 1.00   0.00  0.00  0.00  0.76  0.00  0.00  0.24  0.00  0.00
  Con_152                 1.00   0.00  0.00  0.00  1.00  0.00  0.00  0.00  0.11  0.00
  Con_153                 1.00   0.00  0.00  0.00  1.00  0.00  0.00  0.00  0.02  0.00
  Con_154                 1.00   0.00  0.00  0.00  1.00  0.00  0.00  0.00  0.00  0.00
  Con_155                 1.00   0.00  0.00  0.00  1.00  0.00  0.00  0.00  0.00  0.00
  Con_156                 1.00   0.00  0.00  0.00  1.00  0.00  0.00  0.00  0.00  0.00
  eeneind_out             1.00   0.00  0.00  0.00  0.89  0.11  0.00  0.00  0.86  0.00
  
  
  *************************
  Conduit Surcharge Summary
  *************************
  
  ----------------------------------------------------------------------------
                                                           Hours        Hours 
                         --------- Hours Full --------   Above Full   Capacity
  Conduit                Both Ends  Upstream  Dnstream   Normal Flow   Limited
  ----------------------------------------------------------------------------
  Con_158                     2.95      2.95      8.75      0.01         0.01
  Con_159                     2.56      2.56      2.95      0.01         0.01
  Con_160                     2.56      2.56     19.18      0.01         0.01
  Con_101                     0.01     71.13      0.01     76.24         0.01
  Con_102                     0.20      0.22      0.70     72.02         0.01
  Con_103                     0.76      0.76      1.35      0.01         0.01
  Con_104                     0.70      0.70      0.76      0.01         0.01
  Con_105                     1.32      1.35      1.36     70.15         0.01
  Con_106                     1.36      1.36     16.91      0.02         0.01
  Con_107                    56.74     56.74     78.46      0.01         0.01
  Con_108                    78.46     78.46     84.15      0.01         0.01
  Con_109                     0.22      0.22      0.38      0.01         0.01
  Con_110                     0.38      0.38      1.90      0.01         0.01
  Con_157                     8.75      8.75     19.19      0.01         0.01
  Con_111                    19.19     19.19     23.73      0.01         0.01
  Con_112                     2.15      2.15     24.13      0.01         0.01
  Con_113                    47.94     47.94     50.78      0.01         0.01
  Con_114                    50.78     50.78     51.90      0.01         0.01
  Con_115                    51.90     51.90     65.77      0.01         0.01
  Con_116                    65.77     65.77     77.74      0.01         0.01
  Con_117                    73.70     73.70    132.85      0.01         0.01
  Con_118                    84.15     84.15     88.77      0.01         0.01
  Con_119                    88.77     88.77     94.39      0.01         0.01
  Con_120                    94.39     94.39    108.62      0.01         0.01
  Con_121                   108.62    108.62    113.94      0.01         0.01
  Con_122                   113.93    113.94    131.45      0.01         0.06
  Con_123                   131.45    131.45    711.63      0.01         0.01
  Con_126                     0.01      0.01      0.01    115.71         0.01
  Con_128                     0.01      0.01      0.01      0.03         0.01
  Con_129                     0.01      0.01      0.01      0.02         0.01
  Con_130                     0.01      0.01      0.01      0.06         0.01
  Con_152                    79.60     79.60     89.28      1.63         1.52
  Con_153                    89.28     89.28     92.32      0.06         0.07
  Con_154                    92.32     92.32     94.25      3.75         3.73
  Con_155                    94.25     94.25     97.37      0.01         0.01
  Con_156                    97.37     97.37    113.94      0.01         0.01
  eeneind_out                 0.01      0.01    538.77      0.01         0.01
  
  
  ***************
  Pumping Summary
  ***************
  
  ---------------------------------------------------------------------------------------------------------
                                                  Min       Avg       Max     Total     Power    % Time Off
                        Percent   Number of      Flow      Flow      Flow    Volume     Usage    Pump Curve
  Pump                 Utilized   Start-Ups       CMS       CMS       CMS  10^6 ltr     Kw-hr    Low   High
  ---------------------------------------------------------------------------------------------------------
  P_c_24_d_5             100.00           1      0.00      0.98     19.45  2531.375   3826.23    0.0  100.0
  P_c_23_d_7             100.00           1      0.00      0.00      0.03     3.816      0.01    0.0  100.0
  P_c_22_d_5              16.67           8      0.00      0.00      0.01     0.623      0.00    0.0  100.0
  P_c_21_d_7             100.00           1      0.00      0.00      0.03     3.735      0.01    0.0  100.0
  P_c_12_d_8             100.00           1      0.00      0.00      0.03     5.570      0.01    0.0   99.6
  P_c_20_d_13             18.57           6      0.00      0.01      0.08     3.900      0.01    0.0   95.7
  P_c_19_d_7             100.00           1      0.00      0.00      0.03     3.310      0.01    0.0  100.0
  P_c_10_d_10             20.39           6      0.00      0.00      0.03     2.175      0.01    0.0   95.4
  P_c_16_d_20             18.70           6      0.00      0.02      0.22    10.297      0.03    0.0   94.1
  P_c_15_d_24            100.00           1      0.00      0.01      0.28    16.133      0.03    0.0   98.7
  P_c_14_d_24             18.67           6      0.00      0.03      0.30    13.885      0.03    0.0   93.0
  P_c_129_d_5              8.17           8      0.00      0.01      0.16     2.866      0.00    0.0  100.0
  P_c_128_d_5            100.00           1      0.00      0.19      6.53   495.888  21416.67    0.0  100.0
  P_c_1285_d_5           100.00           1      0.00      0.00      0.17     4.496      0.00    0.0   99.9
  P_c_127_d_5            100.00           1      0.00      0.07      5.68   173.532    171.56    0.0    7.3
  P_c_126_d_5            100.00           1      0.00      0.03      0.98    74.958      0.01    0.0   96.2
  P_c_125_d_5            100.00           1      0.00      0.00      0.42     3.942      0.00    0.0   99.5
  P_c_136_d_5            100.00           1      0.00      0.05      1.28   134.001   6097.52    0.0  100.0
  P_c_135_d_5            100.00           1      0.00      0.01      0.28    19.842      0.00    0.0   99.9
  P_c_131_d_5            100.00           1      0.00      0.01      0.30    23.432      0.00    0.0  100.0
  P_c_130_d_5            100.00           1      0.00      0.00      0.06     4.454      0.00    0.0   97.9
  P_c_134_d_5            100.00           1      0.00      0.00      0.07     4.574      0.00    0.0   99.9
  P_c_132_d_5            100.00           1      0.00      0.00      0.06     3.832      0.00    0.0   99.9
  Con_1119.1             100.00           1      0.00      0.05      0.19   127.313    433.89    0.0   11.5
  P_riool_zuid_out       100.00           1      0.00      0.90      3.48  2331.760  77043.50    0.0   99.7
  P_eindhoven_out         99.57          62      0.00      0.97      3.89  2514.540   3765.49    0.0  100.0
  P_c_150_d_57           100.00           1      0.00      0.06      5.52   155.816    496.28    0.0   99.3
  P_c_123_d_40           100.00           1      0.00      0.03      2.31    78.807    683.43    0.0    6.9
  P_c_143_d_70           100.00           1      0.00      0.27      8.27   691.138   1782.38    0.0   59.3
  P_c_147_d_4              8.39           7      0.00      0.01      0.13     2.365      0.07    0.0  100.0
  P_c_160_d_8            100.00           1      0.00      0.05      0.19   134.777      0.53    0.0  100.0
  P_c_145_d_4            100.00           1      0.00      0.00      0.06     2.304      0.02    0.0  100.0
  P_c_144_d_19           100.00           1      0.00      0.01      0.48    16.472      0.44    0.0  100.0
  P_c_142_d_35           100.00           1      0.00      0.02      1.55    61.741      1.48    0.0  100.0
  P_c_148_d_12           100.00           1      0.00      0.00      0.31     8.445      0.21    0.0  100.0
  P_c_149_d_17            11.62           6      0.00      0.03      0.37     9.706      0.33    0.0  100.0
  P_c_151_d_22           100.00           1      0.00      0.01      0.68    17.565      0.56    0.0  100.0
  P_c_161_d_32            12.21           6      0.00      0.11      1.27    35.810      1.23    0.0  100.0
  P_c_138_d_22           100.00           1      0.00      0.01      0.79    32.733      0.70    0.0  100.0
  P_c_139_d_8              8.61           7      0.00      0.01      0.13     2.521      0.00    0.0   99.9
  P_c_137_d_4            100.00           1      0.00      0.00      0.06     5.000      0.00    0.0   98.2
  P_c_122_d_29           100.00           1      0.00      0.01      1.67    36.087    233.56    0.0   34.6
  P_c_121_d_12           100.00           1      0.00      0.01      0.20    29.992     44.84    0.0   99.4
  P_c_120_d_8            100.00           1      0.00      0.00      0.10     5.200      0.00    0.0   98.6
  P_c_119_d_80           100.00           1      0.00      0.10      7.01   256.471 3602450.48    0.0   98.4
  P_c_100_d_10           100.00           1      0.00      0.00      0.18     4.699      0.08    0.0   99.3
  P_c_118_d_13             7.52           7      0.00      0.03      0.30     5.028      0.14    0.0  100.0
  P_c_116_d_15           100.00           1      0.00      0.01      0.44    13.657     32.86    0.0   99.4
  P_c_114_d_10           100.00           1      0.00      0.00      0.16     4.544      0.00    0.0   99.0
  P_c_112_d_21           100.00           1      0.00      0.01      1.37    17.775     36.46    0.0    6.8
  P_c_107_d_36           100.00           1      0.00      0.15      1.62   396.589    468.50    0.0   99.4
  P_c_107_2_d_12         100.00           1      0.00      0.00      0.18     4.600      0.01    0.0  100.0
  P_c_106_d_13           100.00           1      0.00      0.01      0.24    35.843      0.02    0.0   99.6
  P_c_99_d_41            100.00           1      0.00      0.03      1.77    65.643    167.23    0.0    2.2
  P_c_103_d_8            100.00           1      0.00      0.00      0.11     3.306      0.01    0.0   98.5
  P_c_98_d_20            100.00           1      0.00      0.01      0.50    18.359     46.85    0.0   99.4
  P_aalst_1               19.25         260      0.00      0.56      0.56   277.737  13474.45    0.0   97.0
  P_aalst_2               16.63          54      0.00      0.56      0.56   240.948  11614.77    0.0   99.2
  P_aalst_3               16.37          37      0.00      0.49      0.49   207.560   9996.07    0.0   99.5
  P_aalst_4              100.00           1      0.00      0.39      0.49  1013.805  50670.31    0.0   99.4
  P_pipe_Geldrop         100.00           1      0.00      0.19      0.80   480.309   2624.92    0.0   10.0
  P_gb127                100.00           1      0.00      0.05      0.32   140.057     88.47    0.0    7.3
  P_c_99                 100.00           1      0.00      0.03      0.56    65.645    165.80    0.0    2.2
  P_c_112                100.00           1      0.00      0.01      0.06    15.213     30.65    0.0    6.8
  P_c_119_1              100.00           6      0.00      0.03      0.24    83.299    239.67    0.0  100.0
  P_c_122                100.00           1      0.00      0.01      0.03    36.087    171.94    0.0   34.6
  P_c_123                100.00           1      0.00      0.03      0.28    78.808    479.05    0.0    6.9
  P_c_119_2              100.00           4      0.00      0.03      0.34    74.407    287.46    0.0  100.0
  P_c_119_3              100.00           4      0.00      0.03      0.39    85.075    392.23    0.0  100.0
  P_c_119_fr_040         100.00           1      0.00      0.04     10.00   105.583 1440294.24    0.0    1.6
  P_c_119_fr_028         100.00           1      0.00      0.03     10.00    74.808 1008303.82    0.0    1.6
  P_c_119_fr_032         100.00           1      0.00      0.03     10.00    85.067 1152276.23    0.0    1.6
  P_geldrop_split_1      100.00           1      0.00      0.09     10.00   242.956   1599.18    0.0   51.1
  P_geldrop_split_2      100.00           1      0.00      0.09     10.00   242.956   1561.59    0.0    6.7
  

  Analysis begun on:  Sat May  3 18:31:16 2025
  Analysis ended on:  Sat May  3 18:35:54 2025
  Total elapsed time: 00:04:38