
  EPA STORM WATER MANAGEMENT MODEL - VERSION 5.2 (Build 5.2.4)
  PYSWMM TOOLKIT API - VERSION v1.0 (2023-11-27)
  ------------------------------------------------------------

  WARNING 02: maximum depth increased for Node gb127
  
  ****************
  Analysis Options
  ****************
  Flow Units ............... CMS
  Process Models:
    Rainfall/Runoff ........ YES
    RDII ................... NO
    Snowmelt ............... NO
    Groundwater ............ NO
    Flow Routing ........... YES
    Ponding Allowed ........ NO
    Water Quality .......... NO
  Infiltration Method ...... HORTON
  Flow Routing Method ...... DYNWAVE
  Surcharge Method ......... EXTRAN
  Starting Date ............ 09/15/2024 00:00:00
  Ending Date .............. 10/16/2024 00:00:00
  Antecedent Dry Days ...... 0.0
  Report Time Step ......... 00:05:00
  Wet Time Step ............ 00:01:00
  Dry Time Step ............ 00:10:00
  Routing Time Step ........ 2.00 sec
  Variable Time Step ....... YES
  Maximum Trials ........... 12
  Number of Threads ........ 2
  Head Tolerance ........... 0.000200 m
  
  
  *********************
  Rainfall File Summary
  *********************
  Station    First        Last         Recording   Periods    Periods    Periods
  ID         Date         Date         Frequency  w/Precip    Missing    Malfunc.
  -------------------------------------------------------------------------------
  ES         01/01/2024   12/31/2024       5 min    105217          0          0

  GE         01/01/2024   12/31/2024       5 min    105217          0          0

  RZ1        01/01/2024   12/31/2024       5 min    105217          0          0

  RZ2        01/01/2024   12/31/2024       5 min    105217          0          0

  
  
  **************************        Volume         Depth
  Runoff Quantity Continuity     hectare-m            mm
  **************************     ---------       -------
  Total Precipitation ......       136.029        32.244
  Evaporation Loss .........        86.214        20.436
  Infiltration Loss ........         0.000         0.000
  Surface Runoff ...........        47.647        11.294
  Final Storage ............         2.169         0.514
  Continuity Error (%) .....        -0.001
  
  
  **************************        Volume        Volume
  Flow Routing Continuity        hectare-m      10^6 ltr
  **************************     ---------     ---------
  Dry Weather Inflow .......       220.277      2202.791
  Wet Weather Inflow .......        47.647       476.477
  Groundwater Inflow .......         0.000         0.000
  RDII Inflow ..............         0.000         0.000
  External Inflow ..........        96.923       969.241
  External Outflow .........       364.859      3648.629
  Flooding Loss ............         0.487         4.868
  Evaporation Loss .........         0.006         0.063
  Exfiltration Loss ........         0.000         0.000
  Initial Stored Volume ....         0.804         8.043
  Final Stored Volume ......         3.266        32.663
  Continuity Error (%) .....        -0.811
  
  
  *************************
  Highest Continuity Errors
  *************************
  Node J119 (-7.94%)
  Node Nod_A*HLCMRZ1135 (3.69%)
  Node J1 (-2.07%)
  Node Aalst_gemaal (-1.30%)
  Node Nod_890 (1.27%)
  
  
  ***************************
  Time-Step Critical Elements
  ***************************
  None
  
  
  ********************************
  Highest Flow Instability Indexes
  ********************************
  Link P_riool_zuid_out (7)
  Link Con_117 (2)
  Link Con_152 (1)
  Link P_aalst_4 (1)
  
  
  *********************************
  Most Frequent Nonconverging Nodes
  *********************************
  Node cso_Geldrop (1.25%)
  Node cso_gb_136 (1.25%)
  Node cso_RZ (1.25%)
  Node cso_ES_1 (1.25%)
  Node cso_AALST (1.25%)
  
  
  *************************
  Routing Time Step Summary
  *************************
  Minimum Time Step           :     1.50 sec
  Average Time Step           :     2.00 sec
  Maximum Time Step           :     2.00 sec
  % of Time in Steady State   :     0.00
  Average Iterations per Step :     2.17
  % of Steps Not Converging   :     1.25
  Time Step Frequencies       :
      2.000 -  1.516 sec      :   100.00 %
      1.516 -  1.149 sec      :     0.00 %
      1.149 -  0.871 sec      :     0.00 %
      0.871 -  0.660 sec      :     0.00 %
      0.660 -  0.500 sec      :     0.00 %
  
  
  ***************************
  Subcatchment Runoff Summary
  ***************************
  
  ------------------------------------------------------------------------------------------------------------------------------
                            Total      Total      Total      Total     Imperv       Perv      Total       Total     Peak  Runoff
                           Precip      Runon       Evap      Infil     Runoff     Runoff     Runoff      Runoff   Runoff   Coeff
  Subcatchment                 mm         mm         mm         mm         mm         mm         mm    10^6 ltr      CMS
  ------------------------------------------------------------------------------------------------------------------------------
  c_24_catchment            32.12       0.00      20.79       0.00      10.60       0.00      10.60      203.40     3.47   0.330
  c_23_catchment            32.12       0.00      20.92       0.00      10.43       0.00      10.43        0.31     0.00   0.325
  c_22_catchment            32.12       0.00      20.92       0.00      10.43       0.00      10.43        0.17     0.00   0.325
  c_21_catchment            32.12       0.00      20.92       0.00      10.43       0.00      10.43        0.33     0.01   0.325
  c_12_catchment            32.12       0.00      20.92       0.00      10.43       0.00      10.43        0.39     0.01   0.325
  c_20_catchment            32.12       0.00      20.92       0.00      10.43       0.00      10.43        1.04     0.02   0.325
  c_19_catchment            32.12       0.00      20.92       0.00      10.43       0.00      10.43        0.35     0.01   0.325
  c_10_catchment            32.12       0.00      21.55       0.00       9.69       0.00       9.69        0.60     0.01   0.302
  c_16_catchment            32.12       0.00      20.92       0.00      10.43       0.00      10.43        2.75     0.04   0.325
  c_15_catchment            32.12       0.00      20.92       0.00      10.43       0.00      10.43        3.54     0.06   0.325
  c_14_catchment            32.12       0.00      20.92       0.00      10.43       0.00      10.43        3.71     0.06   0.325
  c_129_catchment           40.96       0.00      20.77       0.00      19.71       0.00      19.71        0.99     0.03   0.481
  c_128_catchment           40.96       0.00      21.21       0.00      19.12       0.00      19.12       48.78     1.34   0.467
  c_1285_catchment          40.96       0.00      20.91       0.00      19.52       0.00      19.52        1.13     0.04   0.476
  c_127_catchment           40.96       0.00      20.59       0.00      19.97       0.00      19.97       26.94     0.96   0.487
  c_126_catchment           40.96       0.00      20.73       0.00      19.78       0.00      19.78        3.12     0.11   0.483
  c_125_catchment           40.96       0.00      20.04       0.00      20.80       0.00      20.80        1.10     0.06   0.508
  c_124_catchment           40.96       0.00      19.45       0.00      21.51       0.00      21.51        0.22     0.02   0.525
  c_136_catchment           40.96       0.00      22.61       0.00      17.37       0.00      17.37        8.77     0.16   0.424
  c_135_catchment           40.96       0.00      22.27       0.00      17.79       0.00      17.79        3.91     0.08   0.434
  c_131_catchment           40.96       0.00      22.70       0.00      17.25       0.00      17.25        3.71     0.07   0.421
  c_130_catchment           40.96       0.00      21.75       0.00      18.44       0.00      18.44        0.72     0.02   0.450
  c_134_catchment           40.96       0.00      22.21       0.00      17.87       0.00      17.87        0.95     0.02   0.436
  c_132_catchment           40.96       0.00      21.75       0.00      18.44       0.00      18.44        0.72     0.02   0.450
  c_150_catchment           33.03       0.00      20.15       0.00      12.59       0.00      12.59       25.80     0.59   0.381
  c_123_catchment           33.03       0.00      20.47       0.00      12.22       0.00      12.22       12.40     0.25   0.370
  c_143_catchment           33.03       0.00      21.51       0.00      11.05       0.00      11.05       34.03     0.43   0.334
  c_147_catchment           33.03       0.00      19.97       0.00      12.80       0.00      12.80        0.55     0.01   0.388
  c_160_catchment           33.03       0.00      20.13       0.00      12.62       0.00      12.62        0.63     0.01   0.382
  c_145_catchment           33.03       0.00      19.31       0.00      13.60       0.00      13.60        0.14     0.00   0.412
  c_144_catchment           33.03       0.00      20.60       0.00      12.07       0.00      12.07        2.75     0.05   0.366
  c_142_catchment           33.03       0.00      20.66       0.00      12.01       0.00      12.01        9.23     0.18   0.364
  c_148_catchment           33.03       0.00      20.12       0.00      12.62       0.00      12.62        1.41     0.03   0.382
  c_149_catchment           33.03       0.00      20.66       0.00      12.01       0.00      12.01        2.20     0.04   0.364
  c_151_catchment           33.03       0.00      20.43       0.00      12.27       0.00      12.27        3.61     0.08   0.371
  c_161_catchment           33.03       0.00      20.76       0.00      11.90       0.00      11.90        8.09     0.15   0.360
  c_138_catchment           33.03       0.00      20.55       0.00      12.13       0.00      12.13        3.51     0.07   0.367
  c_139_catchment           33.03       0.00      20.04       0.00      12.72       0.00      12.72        0.59     0.01   0.385
  c_137_catchment           33.03       0.00      19.31       0.00      13.60       0.00      13.60        0.14     0.00   0.412
  c_122_catchment           25.56       0.00      17.65       0.00       7.91       0.00       7.91        4.13     0.14   0.309
  c_121_catchment           25.56       0.00      19.12       0.00       6.44       0.00       6.44        0.66     0.01   0.252
  c_120_catchment           25.56       0.00      18.32       0.00       7.24       0.00       7.24        0.35     0.01   0.283
  c_119_catchment           25.56       0.00      18.59       0.00       6.97       0.00       6.97       27.38     0.46   0.273
  c_100_catchment           25.56       0.00      17.82       0.00       7.74       0.00       7.74        0.52     0.01   0.303
  c_118_catchment           25.56       0.00      17.86       0.00       7.70       0.00       7.70        0.87     0.02   0.301
  c_116_catchment           25.56       0.00      18.20       0.00       7.36       0.00       7.36        0.95     0.02   0.288
  c_114_catchment           25.56       0.00      17.92       0.00       7.64       0.00       7.64        0.47     0.01   0.299
  c_112_catchment           25.56       0.00      17.31       0.00       8.25       0.00       8.25        2.35     0.11   0.323
  c_107_catchment           25.56       0.00      18.74       0.00       6.82       0.00       6.82        5.27     0.08   0.267
  c_107_2_catchment         25.56       0.00      18.36       0.00       7.20       0.00       7.20        0.65     0.01   0.282
  c_106_catchment           25.56       0.00      18.34       0.00       7.22       0.00       7.22        0.82     0.02   0.283
  c_99_catchment            25.56       0.00      18.65       0.00       6.91       0.00       6.91        7.17     0.12   0.270
  c_103_catchment           25.56       0.00      17.78       0.00       7.78       0.00       7.78        0.30     0.01   0.304
  c_98_catchment            25.56       0.00      18.39       0.00       7.17       0.00       7.17        1.88     0.04   0.281
  
  
  ******************
  Node Depth Summary
  ******************
  
  ---------------------------------------------------------------------------------
                                 Average  Maximum  Maximum  Time of Max    Reported
                                   Depth    Depth      HGL   Occurrence   Max Depth
  Node                 Type       Meters   Meters   Meters  days hr:min      Meters
  ---------------------------------------------------------------------------------
  Nod_100              JUNCTION     0.57     2.97    17.45     0  00:00        2.97
  Nod_890              JUNCTION     0.47     1.10    14.03    11  22:26        1.10
  Nod_891              JUNCTION     0.40     1.03    14.03    11  22:26        1.03
  Nod_892              JUNCTION     0.34     0.97    14.03    11  22:27        0.97
  Nod_A*HLCMRZ1135     JUNCTION     0.56     1.19    14.03    11  22:27        1.19
  Nod_103              JUNCTION     0.40     1.02    14.99    11  23:59        1.02
  Nod_104              JUNCTION     0.30     0.84    14.62    11  23:50        0.84
  Nod_105              JUNCTION     0.31     0.85    14.61    11  23:51        0.85
  Nod_106              JUNCTION     0.39     0.92    14.49    12  00:04        0.92
  Nod_107              JUNCTION     0.39     0.91    14.46    12  00:07        0.91
  Nod_108              JUNCTION     0.77     1.47    12.67    12  00:02        1.47
  Nod_109              JUNCTION     0.12     1.13    12.65    12  00:01        1.13
  Nod_110              JUNCTION     0.34     0.93    14.47    11  22:19        0.93
  Nod_111              JUNCTION     0.32     0.87    14.34    11  22:20        0.87
  Nod_112              JUNCTION     0.56     1.19    14.03    11  22:25        1.19
  Nod_113              JUNCTION     0.59     1.21    14.01    11  22:25        1.21
  Nod_114              JUNCTION     0.33     1.06    13.83    11  22:30        1.06
  Nod_115              JUNCTION     0.34     1.07    13.77    11  22:29        1.07
  Nod_116              JUNCTION     0.33     1.07    13.74    11  22:32        1.07
  Nod_117              JUNCTION     0.34     1.15    13.42    11  22:40        1.15
  Nod_118              JUNCTION     0.38     1.37    13.28    11  20:42        1.36
  Nod_119              JUNCTION     0.13     1.21    12.65    12  00:02        1.21
  Nod_120              JUNCTION     0.11     1.28    12.65    12  00:02        1.28
  Nod_121              JUNCTION     0.14     1.39    12.65    12  00:01        1.39
  Nod_122              JUNCTION     0.23     1.51    12.65    12  00:00        1.51
  Nod_123              JUNCTION     0.27     1.56    12.65    12  00:01        1.56
  Nod_124              JUNCTION     0.06     1.62    12.63    12  00:02        1.62
  Nod_126              JUNCTION     0.38     1.27    18.44    11  22:10        1.27
  Nod_127              JUNCTION     0.57     1.42    19.43    11  19:04        1.42
  Nod_128              JUNCTION     0.22     0.82    18.54    11  22:10        0.82
  Nod_129              JUNCTION     0.38     0.91    16.55    11  22:10        0.91
  Nod_130              JUNCTION     0.24     1.70    16.76     0  00:05        1.70
  Nod_131              JUNCTION     0.36     1.81    16.35     0  00:05        1.81
  Nod_132              JUNCTION     0.35     1.36    15.69     0  00:06        1.17
  Nod_133              JUNCTION     0.36     1.36    15.64     0  00:06        1.10
  Nod_134              JUNCTION     0.40     1.11    15.21    11  22:14        1.11
  Nod_135              JUNCTION     0.41     1.12    15.17    11  22:14        1.12
  Nod_136              JUNCTION     0.47     1.13    15.06    11  22:15        1.13
  Nod_222              JUNCTION     1.11     2.10    13.30    11  20:41        2.09
  Nod_233              JUNCTION     0.42     1.33    12.85    11  23:40        1.33
  Nod_244              JUNCTION     0.42     1.36    12.80    11  23:48        1.36
  Nod_266              JUNCTION     0.39     1.37    12.74    11  23:55        1.37
  Nod_277              JUNCTION     0.37     1.43    12.69    11  23:57        1.43
  J1                   JUNCTION     1.74     4.00    19.06     0  03:08        4.00
  J119                 JUNCTION   112.60  1571.98  1571.98    13  12:45     1571.98
  cso_Geldrop          OUTFALL      0.00     0.00     4.62     0  00:00        0.00
  cso_gb_136           OUTFALL      0.00     0.00     1.00     0  00:00        0.00
  cso_RZ               OUTFALL      0.00     0.00    16.07     0  00:00        0.00
  cso_ES_1             OUTFALL      0.00     0.00     0.00     0  00:00        0.00
  cso_AALST            OUTFALL      0.00     0.00     0.00     0  00:00        0.00
  out_ES               OUTFALL      0.00     0.00     0.00     0  00:00        0.00
  out_RZ               OUTFALL      0.00     0.00     0.00     0  00:00        0.00
  cso_gb127            OUTFALL      0.00     0.00     0.00     0  00:00        0.00
  cso_c_122            OUTFALL      0.00     0.00     0.00     0  00:00        0.00
  cso_c_119_1          OUTFALL      0.00     0.00     0.00     0  00:00        0.00
  cso_c_112            OUTFALL      0.00     0.00     0.00     0  00:00        0.00
  cso_c_99             OUTFALL      0.00     0.00     0.00     0  00:00        0.00
  cso_c_123            OUTFALL      0.00     0.00     0.00     0  00:00        0.00
  cso_c_119_2          OUTFALL      0.00     0.00     0.00     0  00:00        0.00
  cso_c_119_3          OUTFALL      0.00     0.00     0.00     0  00:00        0.00
  c_24_vr_storage_5    STORAGE      0.00     0.00     0.00    11  18:25        0.00
  c_23_vr_storage_7    STORAGE      0.00     0.00     0.00    11  18:25        0.00
  c_22_vr_storage_5    STORAGE      0.00     0.00     0.00    11  18:25        0.00
  c_21_vr_storage_7    STORAGE      0.00     0.00     0.00    11  18:25        0.00
  c_12_vr_storage_8    STORAGE      0.00     0.00     0.00    11  18:30        0.00
  c_20_vr_storage_13   STORAGE      0.00     0.00     0.00    11  18:35        0.00
  c_19_vr_storage_7    STORAGE      0.00     0.00     0.00    11  18:25        0.00
  c_10_vr_storage_10   STORAGE      0.00     0.00     0.00    11  18:30        0.00
  c_16_vr_storage_20   STORAGE      0.00     0.00     0.00    11  18:40        0.00
  c_15_vr_storage_24   STORAGE      0.00     0.00     0.00    11  18:43        0.00
  c_14_vr_storage_24   STORAGE      0.00     0.00     0.00    11  18:43        0.00
  pipe_ES              STORAGE      0.20     0.61     0.61    11  21:20        0.61
  pipe_Geldrop         STORAGE      0.00     0.57    15.63    11  20:35        0.57
  gb_136               STORAGE      0.00     0.12    16.57    11  21:00        0.12
  c_129_vr_storage_5   STORAGE      0.00     0.00     0.00    11  18:10        0.00
  c_128_vr_storage_5   STORAGE      0.00     0.00     0.00    29  12:50        0.00
  c_1285_vr_storage_5  STORAGE      0.00     0.00     0.00    11  18:10        0.00
  c_127_vr_storage_5   STORAGE      0.00     0.00     0.00    11  18:11        0.00
  c_126_vr_storage_5   STORAGE      0.00     0.00     0.00    11  18:10        0.00
  c_125_vr_storage_5   STORAGE      0.00     0.00     0.00    11  17:35        0.00
  c_124_storage        STORAGE      0.01     0.02    14.24    31  00:00        0.02
  c_136_vr_storage_5   STORAGE      0.00     0.00     0.00    11  18:37        0.00
  c_135_vr_storage_5   STORAGE      0.00     0.00     0.00    11  18:35        0.00
  c_131_vr_storage_5   STORAGE      0.00     0.00     0.00    11  18:35        0.00
  c_130_vr_storage_5   STORAGE      0.00     0.00     0.00    11  18:30        0.00
  c_134_vr_storage_5   STORAGE      0.00     0.00     0.00    11  18:35        0.00
  c_132_vr_storage_5   STORAGE      0.00     0.00     0.00    11  18:30        0.00
  Aalst_gemaal         STORAGE      0.06     1.06     1.06    11  20:30        1.06
  pre_ontvangstkelder  STORAGE      2.14    23.12    12.62    12  00:02       23.12
  c_150_vr_storage_57  STORAGE      0.00     0.00     0.00    11  18:40        0.00
  c_123_vr_storage_40  STORAGE      0.00     0.00     0.00    11  18:40        0.00
  c_143_vr_storage_70  STORAGE      0.00     0.00     0.00    11  19:15        0.00
  c_147_vr_storage_4   STORAGE      0.00     0.00     0.00    11  18:25        0.00
  c_160_vr_storage_8   STORAGE      0.00     0.00     0.00    13  13:00        0.00
  c_145_vr_storage_4   STORAGE      0.00     0.00     0.00    11  17:55        0.00
  c_144_vr_storage_19  STORAGE      0.00     0.00     0.00    11  18:35        0.00
  c_142_vr_storage_35  STORAGE      0.00     0.00     0.00    11  18:40        0.00
  c_148_vr_storage_12  STORAGE      0.00     0.00     0.00    11  18:26        0.00
  c_149_vr_storage_17  STORAGE      0.00     0.00     0.00    11  18:30        0.00
  c_151_vr_storage_22  STORAGE      0.00     0.00     0.00    11  18:35        0.00
  c_161_vr_storage_32  STORAGE      0.00     0.00     0.00    11  18:36        0.00
  c_138_vr_storage_22  STORAGE      0.00     0.00     0.00    11  18:35        0.00
  c_139_vr_storage_8   STORAGE      0.00     0.00     0.00    11  18:26        0.00
  c_137_vr_storage_4   STORAGE      0.00     0.00     0.00    13  12:55        0.00
  c_122_vr_storage_29  STORAGE      0.00     0.00     0.00    13  11:40        0.00
  c_121_vr_storage_12  STORAGE      0.00     0.00     0.00    13  11:35        0.00
  c_120_vr_storage_8   STORAGE      0.00     0.00     0.00    13  11:25        0.00
  c_119_vr_storage_80  STORAGE      0.00     0.00     0.00    13  12:30        0.00
  c_100_vr_storage_10  STORAGE      0.00     0.00     0.00    13  11:25        0.00
  c_118_vr_storage_13  STORAGE      0.00     0.00     0.00    13  11:30        0.00
  c_116_vr_storage_15  STORAGE      0.00     0.00     0.00    13  11:35        0.00
  c_114_vr_storage_10  STORAGE      0.00     0.00     0.00    13  11:25        0.00
  c_112_vr_storage_21  STORAGE      0.00     0.00     0.00    13  11:30        0.00
  c_107_vr_storage_36  STORAGE      0.00     0.00     0.00    13  11:50        0.00
  c_107_2_vr_storage_12 STORAGE      0.00     0.00     0.00    13  11:25        0.00
  c_106_vr_storage_13  STORAGE      0.00     0.00     0.00    13  11:30        0.00
  c_99_vr_storage_41   STORAGE      0.00     0.00     0.00    13  11:51        0.00
  c_103_vr_storage_8   STORAGE      0.00     0.00     0.00    13  11:25        0.00
  c_98_vr_storage_20   STORAGE      0.00     0.00     0.00    13  11:35        0.00
  gb127                STORAGE      0.00     0.39     0.39    11  19:50        0.39
  c_123                STORAGE      0.00     0.00     0.00     0  00:00        0.00
  c_122                STORAGE      0.01     0.44     0.44    11  02:55        0.44
  c_112                STORAGE      0.00     0.05     0.05    13  12:00        0.05
  c_99                 STORAGE      0.00     0.00     0.00     0  00:00        0.00
  c_119_1              STORAGE      0.01     2.93     2.93     0  00:05        2.92
  c_119_2              STORAGE      0.00     2.91     2.91     0  00:05        2.90
  c_119_3              STORAGE      0.00     2.89     2.89     0  00:05        2.88
  
  
  *******************
  Node Inflow Summary
  *******************
  
  -------------------------------------------------------------------------------------------------
                                  Maximum  Maximum                  Lateral       Total        Flow
                                  Lateral    Total  Time of Max      Inflow      Inflow     Balance
                                   Inflow   Inflow   Occurrence      Volume      Volume       Error
  Node                 Type           CMS      CMS  days hr:min    10^6 ltr    10^6 ltr     Percent
  -------------------------------------------------------------------------------------------------
  Nod_100              JUNCTION     0.000   10.019     0  00:00           0         292       0.000
  Nod_890              JUNCTION     0.000    0.725     0  00:31           0        17.7       1.287
  Nod_891              JUNCTION     0.000    0.442     0  00:32           0        9.38       1.182
  Nod_892              JUNCTION     0.000    0.263     0  00:30           0        3.88       1.150
  Nod_A*HLCMRZ1135     JUNCTION     0.000    0.317     0  00:00           0        1.01       3.833
  Nod_103              JUNCTION     0.000    0.817     0  00:05           0         289       0.059
  Nod_104              JUNCTION     0.000    0.591    12  01:11           0         289       0.008
  Nod_105              JUNCTION     0.000    0.546    11  22:46           0         285      -0.015
  Nod_106              JUNCTION     0.000    0.546    11  23:06           0         285       0.000
  Nod_107              JUNCTION     0.000    0.546    11  23:22           0         285      -0.086
  Nod_108              JUNCTION     0.000    0.546    12  00:07           0         285       0.009
  Nod_109              JUNCTION     0.000    0.591    12  01:20           0         285      -0.097
  Nod_110              JUNCTION     0.000    2.500    11  22:15           0    1.38e+03      -0.003
  Nod_111              JUNCTION     0.000    2.500    11  22:17           0    1.38e+03       0.026
  Nod_112              JUNCTION     0.000    2.500    11  22:19           0    1.39e+03       0.048
  Nod_113              JUNCTION     0.000    2.498    11  22:20           0    1.38e+03       0.014
  Nod_114              JUNCTION     0.000    2.498    11  22:23           0    1.38e+03      -0.003
  Nod_115              JUNCTION     0.000    2.497    11  22:24           0    1.38e+03       0.001
  Nod_116              JUNCTION     0.000    2.496    11  22:24           0    1.38e+03       0.005
  Nod_117              JUNCTION     0.000    2.496    11  22:22           0    1.38e+03       0.028
  Nod_118              JUNCTION     0.000    4.326    11  20:09           0    1.66e+03       0.027
  Nod_119              JUNCTION     0.000    0.981     0  00:01           0         286      -0.007
  Nod_120              JUNCTION     0.000    0.693    12  01:29           0         286      -0.010
  Nod_121              JUNCTION     0.000    0.771    12  01:44           0         286      -0.009
  Nod_122              JUNCTION     0.000    1.125    11  21:50           0         286       0.004
  Nod_123              JUNCTION     0.000    3.564    11  21:52           0    1.67e+03       0.002
  Nod_124              JUNCTION     0.000    5.286    11  21:58           0    1.67e+03      -0.000
  Nod_126              JUNCTION     0.000    2.100    11  22:10           0    1.19e+03      -0.043
  Nod_127              JUNCTION     0.000    2.100     0  00:05           0    1.19e+03       0.014
  Nod_128              JUNCTION     0.000    2.107    11  19:12           0    1.19e+03      -0.042
  Nod_129              JUNCTION     0.000    3.395     0  00:04           0    1.19e+03      -0.029
  Nod_130              JUNCTION     0.000   10.805     0  00:00           0    1.38e+03       0.002
  Nod_131              JUNCTION     0.000    9.744     0  00:01           0    1.38e+03       0.004
  Nod_132              JUNCTION     0.000    7.133     0  00:05           0    1.38e+03       0.003
  Nod_133              JUNCTION     0.000    5.318     0  00:05           0    1.38e+03       0.003
  Nod_134              JUNCTION     0.000    4.520     0  00:06           0    1.38e+03       0.004
  Nod_135              JUNCTION     0.000    3.567     0  00:07           0    1.38e+03       0.004
  Nod_136              JUNCTION     0.000    3.269     0  00:09           0    1.38e+03       0.056
  Nod_222              JUNCTION     0.000    5.815    11  20:18           0    1.66e+03      -0.009
  Nod_233              JUNCTION     0.000    2.706    11  20:41           0    1.38e+03      -0.022
  Nod_244              JUNCTION     0.000    2.517    11  21:49           0    1.38e+03       0.000
  Nod_266              JUNCTION     0.000    2.505    11  21:46           0    1.38e+03       0.003
  Nod_277              JUNCTION     0.000    2.499    11  21:50           0    1.38e+03       0.004
  J1                   JUNCTION     0.000    0.800    10  23:50           0         381      -2.032
  J119                 JUNCTION     0.000    0.530    13  12:40           0         113      -7.360
  cso_Geldrop          OUTFALL      0.000    0.000     0  00:00           0           0       0.000 ltr
  cso_gb_136           OUTFALL      0.000    0.000     0  00:00           0           0       0.000 ltr
  cso_RZ               OUTFALL      0.000    0.000     0  00:00           0           0       0.000 ltr
  cso_ES_1             OUTFALL      0.000    0.000     0  00:00           0           0       0.000 ltr
  cso_AALST            OUTFALL      0.000    0.000     0  00:00           0           0       0.000 ltr
  out_ES               OUTFALL      0.000    2.387    11  21:20           0    1.98e+03       0.000
  out_RZ               OUTFALL      0.000    2.500    11  20:27           0    1.67e+03       0.000
  cso_gb127            OUTFALL      0.000    0.000     0  00:00           0           0       0.000 ltr
  cso_c_122            OUTFALL      0.000    0.000     0  00:00           0           0       0.000 ltr
  cso_c_119_1          OUTFALL      0.000    0.000     0  00:00           0           0       0.000 ltr
  cso_c_112            OUTFALL      0.000    0.000     0  00:00           0           0       0.000 ltr
  cso_c_99             OUTFALL      0.000    0.000     0  00:00           0           0       0.000 ltr
  cso_c_123            OUTFALL      0.000    0.000     0  00:00           0           0       0.000 ltr
  cso_c_119_2          OUTFALL      0.000    0.000     0  00:00           0           0       0.000 ltr
  cso_c_119_3          OUTFALL      0.000    0.000     0  00:00           0           0       0.000 ltr
  c_24_vr_storage_5    STORAGE      4.186    4.377    11  18:25    1.97e+03    1.99e+03      -0.000
  c_23_vr_storage_7    STORAGE      0.007    0.007    11  18:25        3.05        3.05      -0.000
  c_22_vr_storage_5    STORAGE      0.003    0.003    11  18:25       0.167       0.167      -0.000
  c_21_vr_storage_7    STORAGE      0.007    0.007    11  18:25         2.9         2.9      -0.000
  c_12_vr_storage_8    STORAGE      0.009    0.009    11  18:25        4.65        4.65      -0.000
  c_20_vr_storage_13   STORAGE      0.016    0.016    11  18:25        1.04        1.04      -0.000
  c_19_vr_storage_7    STORAGE      0.007    0.007    11  18:25        2.41        2.41      -0.000
  c_10_vr_storage_10   STORAGE      0.007    0.007    11  18:25       0.601       0.601      -0.000
  c_16_vr_storage_20   STORAGE      0.043    0.043    11  18:25        2.75        2.75      -0.000
  c_15_vr_storage_24   STORAGE      0.058    0.058    11  18:25        6.54        6.54      -0.000
  c_14_vr_storage_24   STORAGE      0.059    0.059    11  18:25        3.71        3.71      -0.000
  pipe_ES              STORAGE      0.000    4.370    11  18:25           0    1.99e+03       0.000
  pipe_Geldrop         STORAGE      0.000    1.810    11  18:15           0         381      -0.000
  gb_136               STORAGE      0.000    0.387    11  18:35           0        98.1      -0.000
  c_129_vr_storage_5   STORAGE      0.032    0.032    11  18:10       0.986       0.986      -0.000
  c_128_vr_storage_5   STORAGE      1.426    1.810    11  18:15         261         381       0.000
  c_1285_vr_storage_5  STORAGE      0.036    0.036    11  18:10        2.36        2.36      -0.000
  c_127_vr_storage_5   STORAGE      0.966    1.143    11  18:10        48.3         117       0.000
  c_126_vr_storage_5   STORAGE      0.129    0.178    11  18:10        67.1        69.1      -0.000
  c_125_vr_storage_5   STORAGE      0.058    0.058    11  17:35        1.93        1.93      -0.000
  c_124_storage        STORAGE      0.027    0.050    29  14:00        11.5        15.7       0.011
  c_136_vr_storage_5   STORAGE      0.183    0.390    11  18:35        66.1        98.1       0.000
  c_135_vr_storage_5   STORAGE      0.082    0.082    11  18:35        12.2        12.2      -0.000
  c_131_vr_storage_5   STORAGE      0.069    0.087    11  18:35        11.6        14.7      -0.000
  c_130_vr_storage_5   STORAGE      0.018    0.018    11  18:30         3.1         3.1      -0.000
  c_134_vr_storage_5   STORAGE      0.020    0.020    11  18:35        2.71        2.71      -0.000
  c_132_vr_storage_5   STORAGE      0.017    0.017    11  18:30        2.46        2.46      -0.000
  Aalst_gemaal         STORAGE      0.000    2.634    11  19:35           0    1.17e+03      -1.282
  pre_ontvangstkelder  STORAGE      0.000    6.195    11  21:48           0    1.67e+03       0.016
  c_150_vr_storage_57  STORAGE      0.605    0.605    11  18:25        71.4        71.4      -0.000
  c_123_vr_storage_40  STORAGE      0.265    0.265    11  18:25        37.6        37.6      -0.000
  c_143_vr_storage_70  STORAGE      0.520    1.176    11  18:40         258         474       0.000
  c_147_vr_storage_4   STORAGE      0.013    0.013    11  18:25        0.55        0.55      -0.000
  c_160_vr_storage_8   STORAGE      0.108    0.108    13  12:55         137         137      -0.000
  c_145_vr_storage_4   STORAGE      0.005    0.005    11  17:55        1.93        1.93      -0.000
  c_144_vr_storage_19  STORAGE      0.056    0.056    11  18:25        7.23        7.23      -0.000
  c_142_vr_storage_35  STORAGE      0.185    0.185    11  18:25        30.9        30.9      -0.000
  c_148_vr_storage_12  STORAGE      0.033    0.033    11  18:25        3.82        3.82      -0.000
  c_149_vr_storage_17  STORAGE      0.042    0.042    11  18:25         2.2         2.2      -0.000
  c_151_vr_storage_22  STORAGE      0.076    0.076    11  18:25        5.43        5.43      -0.000
  c_161_vr_storage_32  STORAGE      0.146    0.146    11  18:25        8.09        8.09      -0.000
  c_138_vr_storage_22  STORAGE      0.074    0.094    11  18:25        13.6        18.9       0.000
  c_139_vr_storage_8   STORAGE      0.014    0.014    11  18:25       0.585       0.585      -0.000
  c_137_vr_storage_4   STORAGE      0.006    0.006    11  17:55        4.72        4.72      -0.000
  c_122_vr_storage_29  STORAGE      0.144    0.144    13  11:20        17.1        17.1      -0.000
  c_121_vr_storage_12  STORAGE      0.016    0.026    13  11:25          22        25.6       0.000
  c_120_vr_storage_8   STORAGE      0.009    0.009    13  11:20        3.54        3.54      -0.000
  c_119_vr_storage_80  STORAGE      0.518    0.543    13  11:25         110         114      -0.000
  c_100_vr_storage_10  STORAGE      0.016    0.016    13  11:20        2.29        2.29      -0.000
  c_118_vr_storage_13  STORAGE      0.024    0.024    13  11:20        0.87        0.87      -0.000
  c_116_vr_storage_15  STORAGE      0.023    0.035    13  11:25        4.56        6.93       0.000
  c_114_vr_storage_10  STORAGE      0.013    0.013    13  11:20        2.37        2.37      -0.000
  c_112_vr_storage_21  STORAGE      0.114    0.114    13  11:20        7.15        7.15      -0.000
  c_107_vr_storage_36  STORAGE      0.212    0.249    13  11:25         340         374       0.000
  c_107_2_vr_storage_12 STORAGE      0.013    0.013    13  11:20         1.4         1.4      -0.000
  c_106_vr_storage_13  STORAGE      0.029    0.029    13  11:20        32.8        32.8      -0.000
  c_99_vr_storage_41   STORAGE      0.130    0.139    13  11:20        26.4        28.3      -0.000
  c_103_vr_storage_8   STORAGE      0.010    0.010    13  11:20        1.96        1.96      -0.000
  c_98_vr_storage_20   STORAGE      0.041    0.041    13  11:20        9.22        9.22      -0.000
  gb127                STORAGE      0.000    1.139    11  18:10           0         117      -0.001
  c_123                STORAGE      0.000    0.265    11  19:00           0        37.6       0.000
  c_122                STORAGE      0.000    0.144    13  11:45           0        17.1      -0.001
  c_112                STORAGE      0.000    0.114    13  11:35           0        7.15      -0.001
  c_99                 STORAGE      0.000    0.136    13  12:00           0        28.3       0.000
  c_119_1              STORAGE      0.000   10.000     0  00:00           0        48.4      -0.000
  c_119_2              STORAGE      0.000   10.000     0  00:00           0        34.8      -0.001
  c_119_3              STORAGE      0.000   10.000     0  00:00           0        39.3      -0.001
  
  
  **********************
  Node Surcharge Summary
  **********************
  
  Surcharging occurs when water rises above the top of the highest conduit.
  ---------------------------------------------------------------------
                                               Max. Height   Min. Depth
                                   Hours       Above Crown    Below Rim
  Node                 Type      Surcharged         Meters       Meters
  ---------------------------------------------------------------------
  Nod_100              JUNCTION       13.66          1.750        0.000
  J1                   JUNCTION      744.00          4.000        0.000
  J119                 JUNCTION      744.00       1571.979    99998427.021
  
  
  *********************
  Node Flooding Summary
  *********************
  
  Flooding refers to all water that overflows a node, whether it ponds or not.
  --------------------------------------------------------------------------
                                                             Total   Maximum
                                 Maximum   Time of Max       Flood    Ponded
                        Hours       Rate    Occurrence      Volume     Depth
  Node                 Flooded       CMS   days hr:min    10^6 ltr    Meters
  --------------------------------------------------------------------------
  Nod_100                 0.10     9.992      0  00:00       2.786     0.000
  J1                    100.88     0.312     11  17:25       2.078     0.000
  
  
  **********************
  Storage Volume Summary
  **********************
  
  ------------------------------------------------------------------------------------------------
                         Average    Avg   Evap  Exfil     Maximum    Max    Time of Max    Maximum
                          Volume   Pcnt   Pcnt   Pcnt      Volume   Pcnt     Occurrence    Outflow
  Storage Unit           1000 m³   Full   Loss   Loss     1000 m³   Full    days hr:min        CMS
  ------------------------------------------------------------------------------------------------
  c_24_vr_storage_5        0.142    0.0    0.0    0.0       0.714    0.0      11  18:25      4.370
  c_23_vr_storage_7        0.000    0.0    0.0    0.0       0.001    0.0      11  18:25      0.007
  c_22_vr_storage_5        0.000    0.0    0.0    0.0       0.000    0.0      11  18:25      0.003
  c_21_vr_storage_7        0.000    0.0    0.0    0.0       0.001    0.0      11  18:25      0.007
  c_12_vr_storage_8        0.001    0.0    0.0    0.0       0.004    0.0      11  18:30      0.009
  c_20_vr_storage_13       0.000    0.0    0.0    0.0       0.012    0.0      11  18:35      0.016
  c_19_vr_storage_7        0.000    0.0    0.0    0.0       0.001    0.0      11  18:25      0.007
  c_10_vr_storage_10       0.000    0.0    0.0    0.0       0.003    0.0      11  18:30      0.007
  c_16_vr_storage_20       0.001    0.0    0.0    0.0       0.045    0.0      11  18:40      0.043
  c_15_vr_storage_24       0.003    0.0    0.0    0.0       0.076    0.0      11  18:43      0.058
  c_14_vr_storage_24       0.002    0.0    0.0    0.0       0.077    0.0      11  18:43      0.059
  pipe_ES                 12.953    6.5    0.0    0.0      40.443   20.4      11  21:20      2.387
  pipe_Geldrop             0.045    0.1    0.0    0.0       5.707   11.4      11  20:35      0.800
  gb_136                   0.007    0.0    0.0    0.0       1.151    7.7      11  21:00      0.191
  c_129_vr_storage_5       0.000    0.0    0.0    0.0       0.005    0.0      11  18:10      0.032
  c_128_vr_storage_5       0.066    0.0    0.0    0.0       0.336    0.0      29  12:50      1.810
  c_1285_vr_storage_5      0.000    0.0    0.0    0.0       0.005    0.0      11  18:10      0.036
  c_127_vr_storage_5       0.004    0.0    0.0    0.0       0.185    0.0      11  18:11      1.139
  c_126_vr_storage_5       0.001    0.0    0.0    0.0       0.030    0.0      11  18:10      0.178
  c_125_vr_storage_5       0.000    0.0    0.0    0.0       0.009    0.0      11  17:35      0.058
  c_124_storage            7.443    0.1    0.0    0.0      15.128    0.2      31  00:00      0.001
  c_136_vr_storage_5       0.005    0.0    0.0    0.0       0.086    0.0      11  18:37      0.387
  c_135_vr_storage_5       0.001    0.0    0.0    0.0       0.012    0.0      11  18:35      0.082
  c_131_vr_storage_5       0.001    0.0    0.0    0.0       0.016    0.0      11  18:35      0.087
  c_130_vr_storage_5       0.000    0.0    0.0    0.0       0.003    0.0      11  18:30      0.018
  c_134_vr_storage_5       0.000    0.0    0.0    0.0       0.003    0.0      11  18:35      0.020
  c_132_vr_storage_5       0.000    0.0    0.0    0.0       0.003    0.0      11  18:30      0.017
  Aalst_gemaal             0.022    0.0    0.0    0.0       2.164    1.5      11  20:30      2.100
  pre_ontvangstkelder      0.021    7.4    0.0    0.0       0.231   79.7      12  00:02      4.020
  c_150_vr_storage_57      0.048    0.0    0.0    0.0       1.712    0.0      11  18:40      0.605
  c_123_vr_storage_40      0.028    0.0    0.0    0.0       0.552    0.0      11  18:40      0.265
  c_143_vr_storage_70      0.615    0.0    0.0    0.0       4.518    0.0      11  19:15      1.169
  c_147_vr_storage_4       0.000    0.0    0.0    0.0       0.002    0.0      11  18:25      0.013
  c_160_vr_storage_8       0.025    0.0    0.0    0.0       0.057    0.0      13  13:00      0.108
  c_145_vr_storage_4       0.000    0.0    0.0    0.0       0.001    0.0      11  17:55      0.005
  c_144_vr_storage_19      0.003    0.0    0.0    0.0       0.056    0.0      11  18:35      0.056
  c_142_vr_storage_35      0.020    0.0    0.0    0.0       0.337    0.0      11  18:40      0.184
  c_148_vr_storage_12      0.001    0.0    0.0    0.0       0.015    0.0      11  18:26      0.033
  c_149_vr_storage_17      0.001    0.0    0.0    0.0       0.031    0.0      11  18:30      0.042
  c_151_vr_storage_22      0.002    0.0    0.0    0.0       0.076    0.0      11  18:35      0.076
  c_161_vr_storage_32      0.005    0.0    0.0    0.0       0.228    0.0      11  18:36      0.146
  c_138_vr_storage_22      0.007    0.0    0.0    0.0       0.097    0.0      11  18:35      0.093
  c_139_vr_storage_8       0.000    0.0    0.0    0.0       0.006    0.0      11  18:26      0.014
  c_137_vr_storage_4       0.000    0.0    0.0    0.0       0.001    0.0      13  12:55      0.006
  c_122_vr_storage_29      0.009    0.0    0.0    0.0       0.204    0.0      13  11:40      0.144
  c_121_vr_storage_12      0.001    0.0    0.0    0.0       0.010    0.0      13  11:35      0.025
  c_120_vr_storage_8       0.001    0.0    0.0    0.0       0.004    0.0      13  11:25      0.009
  c_119_vr_storage_80      0.171    0.0    0.0    0.0       2.167    0.0      13  12:30      0.530
  c_100_vr_storage_10      0.000    0.0    0.0    0.0       0.007    0.0      13  11:25      0.016
  c_118_vr_storage_13      0.000    0.0    0.0    0.0       0.017    0.0      13  11:30      0.024
  c_116_vr_storage_15      0.002    0.0    0.0    0.0       0.027    0.0      13  11:35      0.034
  c_114_vr_storage_10      0.000    0.0    0.0    0.0       0.006    0.0      13  11:25      0.013
  c_112_vr_storage_21      0.003    0.0    0.0    0.0       0.106    0.0      13  11:30      0.114
  c_107_vr_storage_36      0.019    0.0    0.0    0.0       0.220    0.0      13  11:50      0.246
  c_107_2_vr_storage_12     0.000    0.0    0.0    0.0       0.006    0.0      13  11:25      0.013
  c_106_vr_storage_13      0.001    0.0    0.0    0.0       0.014    0.0      13  11:30      0.029
  c_99_vr_storage_41       0.021    0.0    0.0    0.0       0.281    0.0      13  11:51      0.136
  c_103_vr_storage_8       0.000    0.0    0.0    0.0       0.004    0.0      13  11:25      0.010
  c_98_vr_storage_20       0.003    0.0    0.0    0.0       0.040    0.0      13  11:35      0.041
  gb127                    0.029    0.2    0.0    0.0       3.928   21.1      11  19:50      0.316
  c_123                    0.000    0.0    0.0    0.0       0.000    0.0       0  00:00      0.265
  c_122                    0.008    0.1    0.0    0.0       0.444    4.4      11  02:55      0.031
  c_112                    0.000    0.0    0.0    0.0       0.052    2.6      13  12:00      0.061
  c_99                     0.000    0.0    0.0    0.0       0.000    0.0       0  00:00      0.136
  c_119_1                  0.007    0.1    0.0    0.0       2.934   29.3       0  00:05      0.243
  c_119_2                  0.005    0.0    0.0    0.0       2.905   29.1       0  00:05      0.340
  c_119_3                  0.004    0.0    0.0    0.0       2.890   14.5       0  00:05      0.389
  
  
  ***********************
  Outfall Loading Summary
  ***********************
  
  -----------------------------------------------------------
                         Flow       Avg       Max       Total
                         Freq      Flow      Flow      Volume
  Outfall Node           Pcnt       CMS       CMS    10^6 ltr
  -----------------------------------------------------------
  cso_Geldrop            0.00     0.000     0.000       0.000
  cso_gb_136             0.00     0.000     0.000       0.000
  cso_RZ                 0.00     0.000     0.000       0.000
  cso_ES_1               0.00     0.000     0.000       0.000
  cso_AALST              0.00     0.000     0.000       0.000
  out_ES                98.90     0.749     2.387    1983.016
  out_RZ               100.00     0.622     2.500    1665.596
  cso_gb127              0.00     0.000     0.000       0.000
  cso_c_122              0.00     0.000     0.000       0.000
  cso_c_119_1            0.00     0.000     0.000       0.000
  cso_c_112              0.00     0.000     0.000       0.000
  cso_c_99               0.00     0.000     0.000       0.000
  cso_c_123              0.00     0.000     0.000       0.000
  cso_c_119_2            0.00     0.000     0.000       0.000
  cso_c_119_3            0.00     0.000     0.000       0.000
  -----------------------------------------------------------
  System                13.26     1.371     4.887    3648.613
  
  
  ********************
  Link Flow Summary
  ********************
  
  -----------------------------------------------------------------------------
                                 Maximum  Time of Max   Maximum    Max/    Max/
                                  |Flow|   Occurrence   |Veloc|    Full    Full
  Link                 Type          CMS  days hr:min     m/sec    Flow   Depth
  -----------------------------------------------------------------------------
  Con_158              CONDUIT     0.442     0  00:32      0.90    0.01    0.51
  Con_159              CONDUIT     0.263     0  00:30      0.40    0.04    0.48
  Con_160              CONDUIT     0.317     0  00:00      1.04    0.02    0.51
  Con_101              CONDUIT     0.817     0  00:05      0.91    2.54    0.84
  Con_102              CONDUIT     0.591    12  01:11      0.67    1.29    0.77
  Con_103              CONDUIT     0.546    11  23:06      0.75    0.72    0.73
  Con_104              CONDUIT     0.546    11  22:46      1.51    0.55    0.70
  Con_105              CONDUIT     0.546    11  23:22      0.78    1.17    0.75
  Con_106              CONDUIT     0.546    12  00:07      0.86    0.71    0.53
  Con_107              CONDUIT     0.591    12  01:20      0.77    0.14    0.54
  Con_108              CONDUIT     0.981     0  00:01      1.30    0.22    0.65
  Con_109              CONDUIT     2.500    11  22:17      1.09    0.42    0.43
  Con_110              CONDUIT     2.500    11  22:19      1.15    0.39    0.41
  Con_157              CONDUIT     0.725     0  00:31      0.91    0.02    0.54
  Con_111              CONDUIT     2.498    11  22:20      0.79    0.44    0.57
  Con_112              CONDUIT     2.498    11  22:23      0.99    0.34    0.46
  Con_113              CONDUIT     2.497    11  22:24      1.19    0.58    0.59
  Con_114              CONDUIT     2.496    11  22:24      1.18    0.63    0.59
  Con_115              CONDUIT     2.496    11  22:22      1.15    0.60    0.61
  Con_116              CONDUIT     2.598    11  21:03      1.16    0.63    0.69
  Con_117              CONDUIT     5.815    11  20:18      2.11    0.39    0.85
  Con_118              CONDUIT     0.693    12  01:29      1.08    0.18    0.69
  Con_119              CONDUIT     0.771    12  01:44      0.87    0.15    0.74
  Con_120              CONDUIT     0.813    12  01:51      0.71    0.17    0.80
  Con_121              CONDUIT     1.037    11  21:52      0.68    0.20    0.85
  Con_122              CONDUIT     4.087    11  21:53      3.42    0.88    0.88
  Con_123              CONDUIT     6.195    11  21:48      6.59    0.07    0.95
  Con_125              CONDUIT     2.100    11  22:10      1.01    0.91    0.73
  Con_126              CONDUIT     2.107    11  19:12      1.05    1.44    0.74
  Con_127              CONDUIT     2.100    11  22:10      1.72    0.33    0.70
  Con_128              CONDUIT     2.554     0  00:04      1.56    1.07    0.70
  Con_129              CONDUIT     9.744     0  00:01      4.13    1.27    0.88
  Con_130              CONDUIT     7.133     0  00:05      1.83    1.50    0.72
  Con_140              CONDUIT     5.318     0  00:05      2.11    1.00    0.65
  Con_141              CONDUIT     4.520     0  00:06      1.59    0.95    0.53
  Con_142              CONDUIT     3.567     0  00:07      1.58    0.75    0.53
  Con_143              CONDUIT     3.269     0  00:09      1.74    0.68    0.53
  Con_144              CONDUIT     2.500    11  22:15      1.00    0.67    0.45
  Con_152              CONDUIT     2.706    11  20:41      1.08    1.01    0.74
  Con_153              CONDUIT     2.517    11  21:49      1.08    0.88    0.75
  Con_154              CONDUIT     2.505    11  21:46      1.14    0.98    0.76
  Con_155              CONDUIT     2.499    11  21:50      1.10    0.77    0.78
  Con_156              CONDUIT     2.541    11  21:52      1.37    0.69    0.83
  eeneind_out          CONDUIT     0.046    12  01:11      1.80    0.49    0.53
  P_c_24_d_5           PUMP        4.370    11  18:25              0.44
  P_c_23_d_7           PUMP        0.007    11  18:25              0.00
  P_c_22_d_5           PUMP        0.003    11  18:25              0.00
  P_c_21_d_7           PUMP        0.007    11  18:25              0.00
  P_c_12_d_8           PUMP        0.009    11  18:30              0.00
  P_c_20_d_13          PUMP        0.016    11  18:35              0.00
  P_c_19_d_7           PUMP        0.007    11  18:25              0.00
  P_c_10_d_10          PUMP        0.007    11  18:30              0.00
  P_c_16_d_20          PUMP        0.043    11  18:40              0.00
  P_c_15_d_24          PUMP        0.058    11  18:45              0.01
  P_c_14_d_24          PUMP        0.059    11  18:45              0.01
  P_c_129_d_5          PUMP        0.032    11  18:10              0.00
  P_c_128_d_5          PUMP        1.810    11  18:15              0.18
  P_c_1285_d_5         PUMP        0.036    11  18:10              0.00
  P_c_127_d_5          PUMP        1.139    11  18:10              0.11
  P_c_126_d_5          PUMP        0.178    11  18:10              0.02
  P_c_125_d_5          PUMP        0.058    11  17:35              0.01
  P_c_136_d_5          PUMP        0.387    11  18:35              0.04
  P_c_135_d_5          PUMP        0.082    11  18:35              0.01
  P_c_131_d_5          PUMP        0.087    11  18:35              0.01
  P_c_130_d_5          PUMP        0.018    11  18:30              0.00
  P_c_134_d_5          PUMP        0.020    11  18:35              0.00
  P_c_132_d_5          PUMP        0.017    11  18:30              0.00
  Con_1119.1           PUMP        0.191    11  17:35              1.00
  P_riool_zuid_out     PUMP        2.500    11  20:27              0.53
  P_eindhoven_out      PUMP        2.387    11  21:20              0.61
  P_c_150_d_57         PUMP        0.605    11  19:15              0.06
  P_c_123_d_40         PUMP        0.265    11  19:00              0.03
  P_c_143_d_70         PUMP        1.169    11  19:45              0.12
  P_c_147_d_4          PUMP        0.013    11  18:25              0.00
  P_c_160_d_8          PUMP        0.108    13  13:00              0.01
  P_c_145_d_4          PUMP        0.005    11  17:55              0.00
  P_c_144_d_19         PUMP        0.056    11  18:40              0.01
  P_c_142_d_35         PUMP        0.184    11  18:55              0.02
  P_c_148_d_12         PUMP        0.033    11  18:30              0.00
  P_c_149_d_17         PUMP        0.042    11  18:35              0.00
  P_c_151_d_22         PUMP        0.076    11  18:40              0.01
  P_c_161_d_32         PUMP        0.146    11  18:50              0.01
  P_c_138_d_22         PUMP        0.093    11  18:40              0.01
  P_c_139_d_8          PUMP        0.014    11  18:30              0.00
  P_c_137_d_4          PUMP        0.006    11  17:55              0.00
  P_c_122_d_29         PUMP        0.144    13  11:45              0.01
  P_c_121_d_12         PUMP        0.025    13  11:35              0.00
  P_c_120_d_8          PUMP        0.009    13  11:25              0.00
  P_c_119_d_80         PUMP        0.530    13  12:40              0.05
  P_c_100_d_10         PUMP        0.016    13  11:25              0.00
  P_c_118_d_13         PUMP        0.024    13  11:30              0.00
  P_c_116_d_15         PUMP        0.034    13  11:40              0.00
  P_c_114_d_10         PUMP        0.013    13  11:25              0.00
  P_c_112_d_21         PUMP        0.114    13  11:35              0.01
  P_c_107_d_36         PUMP        0.246    13  12:00              0.02
  P_c_107_2_d_12       PUMP        0.013    13  11:25              0.00
  P_c_106_d_13         PUMP        0.029    13  11:30              0.00
  P_c_99_d_41          PUMP        0.136    13  12:00              0.01
  P_c_103_d_8          PUMP        0.010    13  11:25              0.00
  P_c_98_d_20          PUMP        0.041    13  11:35              0.00
  P_aalst_1            PUMP        0.560     0  00:05              1.00
  P_aalst_2            PUMP        0.560     0  00:05              1.00
  P_aalst_3            PUMP        0.490     0  00:05              1.00
  P_aalst_4            PUMP        0.490     0  00:00              1.00
  P_pipe_Geldrop       PUMP        0.800    10  23:50              1.00
  P_gb127              PUMP        0.316    10  22:45              1.00
  P_c_99               PUMP        0.136    13  12:00              0.25
  P_c_112              PUMP        0.061    10  23:35              1.00
  P_c_119_1            PUMP        0.243     0  00:00              1.00
  P_c_122              PUMP        0.031    10  23:20              1.00
  P_c_123              PUMP        0.265    11  19:00              0.93
  P_c_119_2            PUMP        0.340     0  00:00              1.00
  P_c_119_3            PUMP        0.389     0  00:00              1.00
  P_c_119_fr_040       PUMP       10.000     0  00:00              1.00
  P_c_119_fr_028       PUMP       10.000     0  00:00              1.00
  P_c_119_fr_032       PUMP       10.000     0  00:00              1.00
  P_geldrop_split_1    PUMP       10.000     0  00:00              1.00
  P_geldrop_split_2    PUMP       10.000     0  00:00              1.00
  weir_gb_136          WEIR        0.000     0  00:00                      0.00
  Con_A*HLCMRZ1135.1   WEIR        0.000     0  00:00                      0.00
  weir_ES              WEIR        0.000     0  00:00                      0.00
  Aalst_weir           WEIR        0.000     0  00:00                      0.00
  weir_gb127           WEIR        0.000     0  00:00                      0.00
  weir_pipe_Geldrop    WEIR        0.000     0  00:00                      0.00
  weir_c_123           WEIR        0.000     0  00:00                      0.00
  weir_c_99            WEIR        0.000     0  00:00                      0.00
  weir_c_112           WEIR        0.000     0  00:00                      0.00
  weir_c_119_1         WEIR        0.000     0  00:00                      0.00
  weir_c_122           WEIR        0.000     0  00:00                      0.00
  weir_c_119_2         WEIR        0.000     0  00:00                      0.00
  weir_c_119_3         WEIR        0.000     0  00:00                      0.00
  
  
  ***************************
  Flow Classification Summary
  ***************************
  
  -------------------------------------------------------------------------------------
                      Adjusted    ---------- Fraction of Time in Flow Class ---------- 
                       /Actual         Up    Down  Sub   Sup   Up    Down  Norm  Inlet 
  Conduit               Length    Dry  Dry   Dry   Crit  Crit  Crit  Crit  Ltd   Ctrl  
  -------------------------------------------------------------------------------------
  Con_158                 1.00   0.00  0.00  0.00  1.00  0.00  0.00  0.00  0.00  0.00
  Con_159                 1.00   0.00  0.00  0.00  1.00  0.00  0.00  0.00  0.00  0.00
  Con_160                 1.00   0.00  0.00  0.00  1.00  0.00  0.00  0.00  0.00  0.00
  Con_101                 1.00   0.00  0.00  0.00  0.84  0.00  0.00  0.16  0.00  0.00
  Con_102                 1.00   0.00  0.00  0.00  1.00  0.00  0.00  0.00  0.00  0.00
  Con_103                 1.00   0.00  0.00  0.00  1.00  0.00  0.00  0.00  0.39  0.00
  Con_104                 1.00   0.00  0.00  0.00  1.00  0.00  0.00  0.00  0.00  0.00
  Con_105                 1.00   0.00  0.00  0.00  1.00  0.00  0.00  0.00  0.00  0.00
  Con_106                 1.00   0.00  0.00  0.00  0.00  0.00  0.00  1.00  0.00  0.00
  Con_107                 1.00   0.00  0.00  0.00  1.00  0.00  0.00  0.00  0.01  0.00
  Con_108                 1.00   0.00  0.00  0.00  1.00  0.00  0.00  0.00  0.90  0.00
  Con_109                 1.00   0.00  0.00  0.00  1.00  0.00  0.00  0.00  0.00  0.00
  Con_110                 1.00   0.00  0.00  0.00  1.00  0.00  0.00  0.00  0.00  0.00
  Con_157                 1.00   0.00  0.00  0.00  1.00  0.00  0.00  0.00  0.00  0.00
  Con_111                 1.00   0.00  0.00  0.00  1.00  0.00  0.00  0.00  0.00  0.00
  Con_112                 1.00   0.00  0.00  0.00  1.00  0.00  0.00  0.00  0.96  0.00
  Con_113                 1.00   0.00  0.00  0.00  1.00  0.00  0.00  0.00  0.00  0.00
  Con_114                 1.00   0.00  0.00  0.00  1.00  0.00  0.00  0.00  0.00  0.00
  Con_115                 1.00   0.00  0.00  0.00  1.00  0.00  0.00  0.00  0.80  0.00
  Con_116                 1.00   0.00  0.00  0.00  1.00  0.00  0.00  0.00  0.40  0.00
  Con_117                 1.00   0.00  0.00  0.00  1.00  0.00  0.00  0.00  0.14  0.00
  Con_118                 1.00   0.00  0.00  0.00  1.00  0.00  0.00  0.00  0.00  0.00
  Con_119                 1.00   0.00  0.00  0.00  1.00  0.00  0.00  0.00  0.90  0.00
  Con_120                 1.00   0.00  0.00  0.00  1.00  0.00  0.00  0.00  0.27  0.00
  Con_121                 1.00   0.00  0.00  0.00  1.00  0.00  0.00  0.00  0.00  0.00
  Con_122                 1.00   0.00  0.00  0.00  0.01  0.99  0.00  0.00  0.00  0.00
  Con_123                 1.00   0.00  0.00  0.00  0.32  0.34  0.00  0.33  0.66  0.00
  Con_125                 1.00   0.00  0.00  0.00  1.00  0.00  0.00  0.00  0.78  0.00
  Con_126                 1.00   0.00  0.00  0.00  1.00  0.00  0.00  0.00  0.00  0.00
  Con_127                 1.00   0.00  0.00  0.00  1.00  0.00  0.00  0.00  0.98  0.00
  Con_128                 1.00   0.00  0.00  0.00  0.00  0.00  0.00  1.00  0.00  0.00
  Con_129                 1.00   0.00  0.00  0.00  1.00  0.00  0.00  0.00  0.99  0.00
  Con_130                 1.00   0.00  0.00  0.00  1.00  0.00  0.00  0.00  0.02  0.00
  Con_140                 1.00   0.00  0.00  0.00  1.00  0.00  0.00  0.00  0.00  0.00
  Con_141                 1.00   0.00  0.00  0.00  1.00  0.00  0.00  0.00  0.22  0.00
  Con_142                 1.00   0.00  0.00  0.00  1.00  0.00  0.00  0.00  0.00  0.00
  Con_143                 1.00   0.00  0.00  0.00  1.00  0.00  0.00  0.00  0.00  0.00
  Con_144                 1.00   0.00  0.00  0.00  0.73  0.00  0.00  0.27  0.00  0.00
  Con_152                 1.00   0.00  0.00  0.00  1.00  0.00  0.00  0.00  0.19  0.00
  Con_153                 1.00   0.00  0.00  0.00  1.00  0.00  0.00  0.00  0.06  0.00
  Con_154                 1.00   0.00  0.00  0.00  1.00  0.00  0.00  0.00  0.00  0.00
  Con_155                 1.00   0.00  0.00  0.00  1.00  0.00  0.00  0.00  0.00  0.00
  Con_156                 1.00   0.00  0.00  0.00  1.00  0.00  0.00  0.00  0.00  0.00
  eeneind_out             1.00   0.00  0.00  0.00  0.96  0.04  0.00  0.00  0.94  0.00
  
  
  *************************
  Conduit Surcharge Summary
  *************************
  
  ----------------------------------------------------------------------------
                                                           Hours        Hours 
                         --------- Hours Full --------   Above Full   Capacity
  Conduit                Both Ends  Upstream  Dnstream   Normal Flow   Limited
  ----------------------------------------------------------------------------
  Con_101                     0.01     13.66      0.01     26.83         0.01
  Con_102                     0.01      0.01      0.01     16.62         0.01
  Con_105                     0.01      0.01      0.01     12.15         0.01
  Con_117                     0.01      0.01      8.76      0.01         0.01
  Con_123                     0.01      0.01     48.84      0.01         0.01
  Con_126                     0.01      0.01      0.01     10.78         0.01
  Con_128                     0.01      0.01      0.01      0.03         0.01
  Con_129                     0.01      0.01      0.01      0.02         0.01
  Con_130                     0.01      0.01      0.01      0.06         0.01
  Con_152                     0.01      0.01      0.01      0.07         0.01
  eeneind_out                 0.01      0.01    562.22      0.01         0.01
  
  
  ***************
  Pumping Summary
  ***************
  
  ---------------------------------------------------------------------------------------------------------
                                                  Min       Avg       Max     Total     Power    % Time Off
                        Percent   Number of      Flow      Flow      Flow    Volume     Usage    Pump Curve
  Pump                 Utilized   Start-Ups       CMS       CMS       CMS  10^6 ltr     Kw-hr    Low   High
  ---------------------------------------------------------------------------------------------------------
  P_c_24_d_5             100.00           1      0.00      0.74      4.37  1992.974   1217.52    0.0  100.0
  P_c_23_d_7             100.00           1      0.00      0.00      0.01     3.047      0.00    0.0  100.0
  P_c_22_d_5              15.43           6      0.00      0.00      0.00     0.165      0.00    0.0  100.0
  P_c_21_d_7             100.00           1      0.00      0.00      0.01     2.904      0.00    0.0  100.0
  P_c_12_d_8             100.00           1      0.00      0.00      0.01     4.651      0.00    0.0   99.7
  P_c_20_d_13             19.32           5      0.00      0.00      0.02     1.043      0.00    0.0   97.2
  P_c_19_d_7             100.00           1      0.00      0.00      0.01     2.405      0.00    0.0  100.0
  P_c_10_d_10             20.84           4      0.00      0.00      0.01     0.600      0.00    0.0   95.8
  P_c_16_d_20             19.74           5      0.00      0.01      0.04     2.753      0.00    0.0   95.4
  P_c_15_d_24            100.00           1      0.00      0.00      0.06     6.543      0.00    0.0   99.0
  P_c_14_d_24             19.82           6      0.00      0.01      0.06     3.713      0.00    0.0   95.0
  P_c_129_d_5             13.30           9      0.00      0.00      0.03     0.985      0.00    0.0  100.0
  P_c_128_d_5            100.00           1      0.00      0.14      1.81   381.101  15653.70    0.0  100.0
  P_c_1285_d_5           100.00           1      0.00      0.00      0.04     2.364      0.00    0.0  100.0
  P_c_127_d_5            100.00           1      0.00      0.04      1.14   117.345      6.73    0.0    2.4
  P_c_126_d_5            100.00           1      0.00      0.03      0.18    69.065      0.00    0.0   96.1
  P_c_125_d_5            100.00           1      0.00      0.00      0.06     1.933      0.00    0.0  100.0
  P_c_136_d_5            100.00           1      0.00      0.04      0.39    98.080   4394.11    0.0  100.0
  P_c_135_d_5            100.00           1      0.00      0.00      0.08    12.163      0.00    0.0  100.0
  P_c_131_d_5            100.00           1      0.00      0.01      0.09    14.659      0.00    0.0  100.0
  P_c_130_d_5            100.00           1      0.00      0.00      0.02     3.103      0.00    0.0  100.0
  P_c_134_d_5            100.00           1      0.00      0.00      0.02     2.715      0.00    0.0  100.0
  P_c_132_d_5            100.00           1      0.00      0.00      0.02     2.460      0.00    0.0  100.0
  Con_1119.1             100.00           1      0.00      0.04      0.19    98.080    348.44    0.0    1.0
  P_riool_zuid_out       100.00           1      0.00      0.62      2.50  1665.597  36180.90    0.0    0.0
  P_eindhoven_out         98.90           1      0.00      0.75      2.39  1983.017   1216.52    0.0    0.0
  P_c_150_d_57           100.00           1      0.00      0.03      0.60    71.383     38.02    0.0   98.9
  P_c_123_d_40           100.00           1      0.00      0.01      0.26    37.579      0.01    0.0    0.0
  P_c_143_d_70           100.00           1      0.00      0.18      1.17   473.805    159.44    0.0   48.1
  P_c_147_d_4             12.84           9      0.00      0.00      0.01     0.550      0.00    0.0  100.0
  P_c_160_d_8            100.00           1      0.00      0.05      0.11   137.081      0.28    0.0  100.0
  P_c_145_d_4            100.00           1      0.00      0.00      0.00     1.930      0.00    0.0  100.0
  P_c_144_d_19           100.00           1      0.00      0.00      0.06     7.225      0.02    0.0  100.0
  P_c_142_d_35           100.00           1      0.00      0.01      0.18    30.919      0.09    0.0  100.0
  P_c_148_d_12           100.00           1      0.00      0.00      0.03     3.824      0.01    0.0  100.0
  P_c_149_d_17            15.13           7      0.00      0.01      0.04     2.197      0.01    0.0  100.0
  P_c_151_d_22           100.00           1      0.00      0.00      0.08     5.428      0.02    0.0  100.0
  P_c_161_d_32            15.94           7      0.00      0.02      0.15     8.089      0.04    0.0  100.0
  P_c_138_d_22           100.00           1      0.00      0.01      0.09    18.903      0.05    0.0  100.0
  P_c_139_d_8             12.97           9      0.00      0.00      0.01     0.585      0.00    0.0  100.0
  P_c_137_d_4            100.00           1      0.00      0.00      0.01     4.716      0.00    0.0  100.0
  P_c_122_d_29           100.00           1      0.00      0.01      0.14    17.090      1.86    0.0    4.8
  P_c_121_d_12           100.00           1      0.00      0.01      0.03    25.576      5.28    0.0   98.9
  P_c_120_d_8            100.00           1      0.00      0.00      0.01     3.542      0.00    0.0  100.0
  P_c_119_d_80           100.00           1      0.00      0.04      0.53   113.498  82309.60    0.0   94.4
  P_c_100_d_10           100.00           1      0.00      0.00      0.02     2.286      0.00    0.0  100.0
  P_c_118_d_13            10.30           9      0.00      0.00      0.02     0.870      0.00    0.0  100.0
  P_c_116_d_15           100.00           1      0.00      0.00      0.03     6.932      2.65    0.0   98.9
  P_c_114_d_10           100.00           1      0.00      0.00      0.01     2.368      0.00    0.0  100.0
  P_c_112_d_21           100.00           1      0.00      0.00      0.11     7.146      0.03    0.0    0.3
  P_c_107_d_36           100.00           1      0.00      0.14      0.25   374.114     67.43    0.0   98.9
  P_c_107_2_d_12         100.00           1      0.00      0.00      0.01     1.398      0.00    0.0  100.0
  P_c_106_d_13           100.00           1      0.00      0.01      0.03    32.819      0.00    0.0  100.0
  P_c_99_d_41            100.00           1      0.00      0.01      0.14    28.326      0.00    0.0    0.0
  P_c_103_d_8            100.00           1      0.00      0.00      0.01     1.956      0.00    0.0  100.0
  P_c_98_d_20            100.00           1      0.00      0.00      0.04     9.217      3.53    0.0   98.9
  P_aalst_1                7.02         479      0.00      0.55      0.56   103.401   5246.35    0.0   85.2
  P_aalst_2                2.86         168      0.00      0.55      0.56    42.451   2161.69    0.0   84.4
  P_aalst_3                1.77          87      0.00      0.49      0.49    23.014   1169.78    0.0   90.0
  P_aalst_4              100.00           1      0.00      0.38      0.49  1020.056  51482.65    0.0   98.9
  P_pipe_Geldrop         100.00           1      0.00      0.14      0.80   381.102   2021.25    0.0    2.1
  P_gb127                100.00           1      0.00      0.04      0.32   117.346      6.74    0.0    2.4
  P_c_99                 100.00           1      0.00      0.01      0.14    28.326     12.50    0.0    0.0
  P_c_112                100.00           1      0.00      0.00      0.06     7.146      3.26    0.0    0.3
  P_c_119_1              100.00           2      0.00      0.02      0.24    48.405     30.45    0.0  100.0
  P_c_122                100.00           1      0.00      0.01      0.03    17.090      5.63    0.0    4.8
  P_c_123                100.00           1      0.00      0.01      0.26    37.579     19.08    0.0    0.0
  P_c_119_2              100.00           2      0.00      0.01      0.34    34.786     23.89    0.0  100.0
  P_c_119_3              100.00           2      0.00      0.01      0.39    39.325     25.88    0.0  100.0
  P_c_119_fr_040         100.00           1      0.00      0.02     10.00    48.397  32935.97    0.0    5.6
  P_c_119_fr_028         100.00           1      0.00      0.01     10.00    34.778  23058.64    0.0    5.6
  P_c_119_fr_032         100.00           1      0.00      0.01     10.00    39.317  26350.96    0.0    5.6
  P_geldrop_split_1      100.00           1      0.00      0.07     10.00   193.456   1021.60    0.0   55.9
  P_geldrop_split_2      100.00           1      0.00      0.07     10.00   193.456   1010.85    0.0   12.3
  

  Analysis begun on:  Mon May 19 21:44:25 2025
  Analysis ended on:  Mon May 19 21:47:55 2025
  Total elapsed time: 00:03:30