
  EPA STORM WATER MANAGEMENT MODEL - VERSION 5.2 (Build 5.2.4)
  PYSWMM TOOLKIT API - VERSION v1.0 (2023-11-27)
  ------------------------------------------------------------

  WARNING 04: minimum elevation drop used for Conduit geldrop_out_east
  WARNING 04: minimum elevation drop used for Conduit eindhoven_out
  
  ****************
  Analysis Options
  ****************
  Flow Units ............... CMS
  Process Models:
    Rainfall/Runoff ........ YES
    RDII ................... NO
    Snowmelt ............... NO
    Groundwater ............ NO
    Flow Routing ........... YES
    Ponding Allowed ........ NO
    Water Quality .......... NO
  Infiltration Method ...... HORTON
  Flow Routing Method ...... DYNWAVE
  Surcharge Method ......... EXTRAN
  Starting Date ............ 08/01/2024 00:00:00
  Ending Date .............. 08/31/2024 00:00:00
  Antecedent Dry Days ...... 0.0
  Report Time Step ......... 00:05:00
  Wet Time Step ............ 00:01:00
  Dry Time Step ............ 00:10:00
  Routing Time Step ........ 5.00 sec
  Variable Time Step ....... YES
  Maximum Trials ........... 12
  Number of Threads ........ 2
  Head Tolerance ........... 0.000200 m
  
  
  *********************
  Rainfall File Summary
  *********************
  Station    First        Last         Recording   Periods    Periods    Periods
  ID         Date         Date         Frequency  w/Precip    Missing    Malfunc.
  -------------------------------------------------------------------------------
  ES         09/01/2024   09/30/2024       5 min      8640          0          0

  GE         09/01/2024   09/30/2024       5 min      8640          0          0

  RZ1        09/01/2024   09/30/2024       5 min      8640          0          0

  RZ2        09/01/2024   09/30/2024       5 min      8640          0          0

  
  
  **************************        Volume         Depth
  Runoff Quantity Continuity     hectare-m            mm
  **************************     ---------       -------
  Total Precipitation ......         0.000         0.000
  Evaporation Loss .........         0.000         0.000
  Infiltration Loss ........         0.000         0.000
  Surface Runoff ...........         0.000         0.000
  Final Storage ............         0.000         0.000
  Continuity Error (%) .....         0.000
  
  
  **************************        Volume        Volume
  Flow Routing Continuity        hectare-m      10^6 ltr
  **************************     ---------     ---------
  Dry Weather Inflow .......       274.973      2749.762
  Wet Weather Inflow .......         0.000         0.000
  Groundwater Inflow .......         0.000         0.000
  RDII Inflow ..............         0.000         0.000
  External Inflow ..........         0.000         0.000
  External Outflow .........       262.706      2627.089
  Flooding Loss ............         0.000         0.000
  Evaporation Loss .........         0.014         0.136
  Exfiltration Loss ........         0.000         0.000
  Initial Stored Volume ....         0.806         8.057
  Final Stored Volume ......        12.877       128.773
  Continuity Error (%) .....         0.066
  
  
  *************************
  Highest Continuity Errors
  *************************
  Node Nod_890 (16.56%)
  Node Nod_891 (15.35%)
  Node Nod_A*HLCMRZ1135 (11.82%)
  
  
  ***************************
  Time-Step Critical Elements
  ***************************
  Link Con_161 (100.00%)
  
  
  ********************************
  Highest Flow Instability Indexes
  ********************************
  Link Con_117 (1)
  
  
  *********************************
  Most Frequent Nonconverging Nodes
  *********************************
  Convergence obtained at all time steps.
  
  
  *************************
  Routing Time Step Summary
  *************************
  Minimum Time Step           :     0.02 sec
  Average Time Step           :     1.08 sec
  Maximum Time Step           :     5.00 sec
  % of Time in Steady State   :     0.00
  Average Iterations per Step :     2.00
  % of Steps Not Converging   :     0.00
  Time Step Frequencies       :
      5.000 -  3.155 sec      :     0.00 %
      3.155 -  1.991 sec      :     0.01 %
      1.991 -  1.256 sec      :     5.56 %
      1.256 -  0.792 sec      :    94.36 %
      0.792 -  0.500 sec      :     0.07 %
  
  
  ***************************
  Subcatchment Runoff Summary
  ***************************
  
  ------------------------------------------------------------------------------------------------------------------------------
                            Total      Total      Total      Total     Imperv       Perv      Total       Total     Peak  Runoff
                           Precip      Runon       Evap      Infil     Runoff     Runoff     Runoff      Runoff   Runoff   Coeff
  Subcatchment                 mm         mm         mm         mm         mm         mm         mm    10^6 ltr      CMS
  ------------------------------------------------------------------------------------------------------------------------------
  c_24_catchment             0.00       0.00       0.00       0.00       0.00       0.00       0.00        0.00     0.00   0.000
  c_23_catchment             0.00       0.00       0.00       0.00       0.00       0.00       0.00        0.00     0.00   0.000
  c_22_catchment             0.00       0.00       0.00       0.00       0.00       0.00       0.00        0.00     0.00   0.000
  c_21_catchment             0.00       0.00       0.00       0.00       0.00       0.00       0.00        0.00     0.00   0.000
  c_12_catchment             0.00       0.00       0.00       0.00       0.00       0.00       0.00        0.00     0.00   0.000
  c_20_catchment             0.00       0.00       0.00       0.00       0.00       0.00       0.00        0.00     0.00   0.000
  c_19_catchment             0.00       0.00       0.00       0.00       0.00       0.00       0.00        0.00     0.00   0.000
  c_10_catchment             0.00       0.00       0.00       0.00       0.00       0.00       0.00        0.00     0.00   0.000
  c_16_catchment             0.00       0.00       0.00       0.00       0.00       0.00       0.00        0.00     0.00   0.000
  c_15_catchment             0.00       0.00       0.00       0.00       0.00       0.00       0.00        0.00     0.00   0.000
  c_14_catchment             0.00       0.00       0.00       0.00       0.00       0.00       0.00        0.00     0.00   0.000
  c_129_catchment            0.00       0.00       0.00       0.00       0.00       0.00       0.00        0.00     0.00   0.000
  c_128_catchment            0.00       0.00       0.00       0.00       0.00       0.00       0.00        0.00     0.00   0.000
  c_1285_catchment           0.00       0.00       0.00       0.00       0.00       0.00       0.00        0.00     0.00   0.000
  c_127_catchment            0.00       0.00       0.00       0.00       0.00       0.00       0.00        0.00     0.00   0.000
  c_126_catchment            0.00       0.00       0.00       0.00       0.00       0.00       0.00        0.00     0.00   0.000
  c_125_catchment            0.00       0.00       0.00       0.00       0.00       0.00       0.00        0.00     0.00   0.000
  c_124_catchment            0.00       0.00       0.00       0.00       0.00       0.00       0.00        0.00     0.00   0.000
  c_136_catchment            0.00       0.00       0.00       0.00       0.00       0.00       0.00        0.00     0.00   0.000
  c_135_catchment            0.00       0.00       0.00       0.00       0.00       0.00       0.00        0.00     0.00   0.000
  c_131_catchment            0.00       0.00       0.00       0.00       0.00       0.00       0.00        0.00     0.00   0.000
  c_130_catchment            0.00       0.00       0.00       0.00       0.00       0.00       0.00        0.00     0.00   0.000
  c_134_catchment            0.00       0.00       0.00       0.00       0.00       0.00       0.00        0.00     0.00   0.000
  c_132_catchment            0.00       0.00       0.00       0.00       0.00       0.00       0.00        0.00     0.00   0.000
  c_150_catchment            0.00       0.00       0.00       0.00       0.00       0.00       0.00        0.00     0.00   0.000
  c_123_catchment            0.00       0.00       0.00       0.00       0.00       0.00       0.00        0.00     0.00   0.000
  c_143_catchment            0.00       0.00       0.00       0.00       0.00       0.00       0.00        0.00     0.00   0.000
  c_147_catchment            0.00       0.00       0.00       0.00       0.00       0.00       0.00        0.00     0.00   0.000
  c_160_catchment            0.00       0.00       0.00       0.00       0.00       0.00       0.00        0.00     0.00   0.000
  c_145_catchment            0.00       0.00       0.00       0.00       0.00       0.00       0.00        0.00     0.00   0.000
  c_144_catchment            0.00       0.00       0.00       0.00       0.00       0.00       0.00        0.00     0.00   0.000
  c_142_catchment            0.00       0.00       0.00       0.00       0.00       0.00       0.00        0.00     0.00   0.000
  c_148_catchment            0.00       0.00       0.00       0.00       0.00       0.00       0.00        0.00     0.00   0.000
  c_149_catchment            0.00       0.00       0.00       0.00       0.00       0.00       0.00        0.00     0.00   0.000
  c_151_catchment            0.00       0.00       0.00       0.00       0.00       0.00       0.00        0.00     0.00   0.000
  c_161_catchment            0.00       0.00       0.00       0.00       0.00       0.00       0.00        0.00     0.00   0.000
  c_138_catchment            0.00       0.00       0.00       0.00       0.00       0.00       0.00        0.00     0.00   0.000
  c_139_catchment            0.00       0.00       0.00       0.00       0.00       0.00       0.00        0.00     0.00   0.000
  c_137_catchment            0.00       0.00       0.00       0.00       0.00       0.00       0.00        0.00     0.00   0.000
  c_122_catchment            0.00       0.00       0.00       0.00       0.00       0.00       0.00        0.00     0.00   0.000
  c_121_catchment            0.00       0.00       0.00       0.00       0.00       0.00       0.00        0.00     0.00   0.000
  c_120_catchment            0.00       0.00       0.00       0.00       0.00       0.00       0.00        0.00     0.00   0.000
  c_119_catchment            0.00       0.00       0.00       0.00       0.00       0.00       0.00        0.00     0.00   0.000
  c_100_catchment            0.00       0.00       0.00       0.00       0.00       0.00       0.00        0.00     0.00   0.000
  c_118_catchment            0.00       0.00       0.00       0.00       0.00       0.00       0.00        0.00     0.00   0.000
  c_116_catchment            0.00       0.00       0.00       0.00       0.00       0.00       0.00        0.00     0.00   0.000
  c_114_catchment            0.00       0.00       0.00       0.00       0.00       0.00       0.00        0.00     0.00   0.000
  c_112_catchment            0.00       0.00       0.00       0.00       0.00       0.00       0.00        0.00     0.00   0.000
  c_107_catchment            0.00       0.00       0.00       0.00       0.00       0.00       0.00        0.00     0.00   0.000
  c_107_2_catchment          0.00       0.00       0.00       0.00       0.00       0.00       0.00        0.00     0.00   0.000
  c_106_catchment            0.00       0.00       0.00       0.00       0.00       0.00       0.00        0.00     0.00   0.000
  c_99_catchment             0.00       0.00       0.00       0.00       0.00       0.00       0.00        0.00     0.00   0.000
  c_103_catchment            0.00       0.00       0.00       0.00       0.00       0.00       0.00        0.00     0.00   0.000
  c_98_catchment             0.00       0.00       0.00       0.00       0.00       0.00       0.00        0.00     0.00   0.000
  
  
  ******************
  Node Depth Summary
  ******************
  
  ---------------------------------------------------------------------------------
                                 Average  Maximum  Maximum  Time of Max    Reported
                                   Depth    Depth      HGL   Occurrence   Max Depth
  Node                 Type       Meters   Meters   Meters  days hr:min      Meters
  ---------------------------------------------------------------------------------
  Nod_100              JUNCTION     0.58     0.62    15.10    29  21:59        0.62
  Mierlo_2             JUNCTION     0.02     0.02    16.32     0  15:30        0.02
  Nod_890              JUNCTION     0.48     0.66    13.59    14  02:12        0.66
  Nod_891              JUNCTION     0.41     0.59    13.59    14  02:13        0.59
  Nod_892              JUNCTION     0.35     0.53    13.59    14  02:12        0.53
  Nod_A*HLCMRZ1135     JUNCTION     0.57     0.75    13.59    14  02:12        0.75
  Nod_103              JUNCTION     0.41     0.45    14.42     1  22:24        0.45
  Nod_104              JUNCTION     0.31     0.34    14.12    29  22:55        0.34
  Nod_105              JUNCTION     0.32     0.40    14.16     0  00:00        0.35
  Nod_106              JUNCTION     0.41     0.53    14.10     0  00:00        0.46
  Nod_107              JUNCTION     0.41     0.49    14.04     0  00:02        0.48
  Nod_108              JUNCTION     0.78     0.79    11.99    29  23:32        0.79
  Nod_109              JUNCTION     0.12     0.50    12.02     0  00:00        0.25
  Nod_110              JUNCTION     0.36     0.55    14.09    14  01:16        0.55
  Nod_111              JUNCTION     0.34     0.51    13.98    14  01:03        0.51
  Nod_112              JUNCTION     0.57     0.75    13.59    14  02:13        0.75
  Nod_113              JUNCTION     0.61     0.78    13.58    14  02:14        0.78
  Nod_114              JUNCTION     0.35     0.57    13.34    14  02:36        0.57
  Nod_115              JUNCTION     0.36     0.58    13.28    14  02:39        0.58
  Nod_116              JUNCTION     0.35     0.58    13.25    14  02:38        0.58
  Nod_117              JUNCTION     0.36     0.62    12.89    14  06:37        0.62
  Nod_118              JUNCTION     0.41     0.86    12.77    14  08:23        0.86
  Nod_119              JUNCTION     0.13     0.39    11.83     0  00:01        0.29
  Nod_120              JUNCTION     0.11     0.32    11.69     0  00:03        0.29
  Nod_121              JUNCTION     0.15     0.27    11.53     0  00:06        0.26
  Nod_122              JUNCTION     0.25     0.36    11.50    14  03:12        0.36
  Nod_123              JUNCTION     0.29     0.41    11.50    14  03:06        0.41
  Nod_124              JUNCTION     0.13     0.19    11.20    14  03:02        0.19
  Nod_126              JUNCTION     0.45     0.78    17.95    13  23:53        0.78
  Nod_127              JUNCTION     0.66     0.99    19.00    13  23:19        0.99
  Nod_128              JUNCTION     0.26     0.67    18.39     0  00:00        0.42
  Nod_129              JUNCTION     0.44     0.65    16.29    14  00:30        0.65
  Nod_130              JUNCTION     0.26     0.42    15.48    14  00:32        0.42
  Nod_131              JUNCTION     0.38     0.62    15.16    14  00:56        0.62
  Nod_132              JUNCTION     0.38     0.62    14.95    14  01:14        0.62
  Nod_133              JUNCTION     0.39     0.64    14.92    14  01:16        0.64
  Nod_134              JUNCTION     0.42     0.67    14.77    14  01:25        0.67
  Nod_135              JUNCTION     0.44     0.68    14.73    14  01:27        0.68
  Nod_136              JUNCTION     0.50     0.71    14.64    14  01:30        0.71
  Nod_222              JUNCTION     1.14     1.65    12.85    14  06:19        1.65
  Nod_233              JUNCTION     0.45     0.74    12.26    14  11:30        0.74
  Nod_244              JUNCTION     0.45     0.72    12.16    14  11:26        0.72
  Nod_266              JUNCTION     0.41     0.65    12.02    14  10:39        0.65
  Nod_277              JUNCTION     0.39     0.61    11.87    14  10:41        0.61
  cso_Geldrop          OUTFALL      0.00     0.00     4.62     0  00:00        0.00
  cso_gb_136           OUTFALL      0.00     0.00     1.00     0  00:00        0.00
  cso_RZ               OUTFALL      0.00     0.00    16.07     0  00:00        0.00
  cso_ES_2             OUTFALL      0.00     0.00     1.50     0  00:00        0.00
  cso_ES_1             OUTFALL      0.00     0.00     1.25     0  00:00        0.00
  cso_AALST            OUTFALL      0.00     0.00     0.00     0  00:00        0.00
  out_ES               OUTFALL      0.00     0.00     0.00     0  00:00        0.00
  out_RZ               OUTFALL      0.00     0.00     0.00     0  00:00        0.00
  c_24_vr_storage_175  STORAGE      0.00     0.00     0.00     0  15:25        0.00
  c_23_vr_storage_7    STORAGE      0.00     0.00     0.00     1  14:05        0.00
  c_22_vr_storage_5    STORAGE      0.00     0.00     0.00     0  00:00        0.00
  c_21_vr_storage_7    STORAGE      0.00     0.00     0.00     1  14:05        0.00
  c_12_vr_storage_8    STORAGE      0.00     0.00     0.00     1  14:10        0.00
  c_20_vr_storage_13   STORAGE      0.00     0.00     0.00     0  00:00        0.00
  c_19_vr_storage_7    STORAGE      0.00     0.00     0.00     1  14:05        0.00
  c_10_vr_storage_10   STORAGE      0.00     0.00     0.00     0  00:00        0.00
  c_16_vr_storage_20   STORAGE      0.00     0.00     0.00     0  00:00        0.00
  c_15_vr_storage_24   STORAGE      0.00     0.00     0.00     1  14:25        0.00
  c_14_vr_storage_24   STORAGE      0.00     0.00     0.00     0  00:00        0.00
  pipe_ES              STORAGE      0.50     0.53     0.53    23  01:55        0.53
  pipe_Geldrop         STORAGE      0.19     0.21    15.27     6  23:10        0.21
  gb_136               STORAGE      0.05     0.06    16.51     0  15:30        0.06
  c_129_vr_storage_2   STORAGE      0.00     0.00     0.00     0  00:00        0.00
  c_128_vr_storage_64  STORAGE      0.00     0.00     0.00     0  15:00        0.00
  c_1285_vr_storage_10 STORAGE      0.00     0.00     0.00     1  14:10        0.00
  c_127_vr_storage_46  STORAGE      0.00     0.00     0.00     0  15:00        0.00
  c_126_vr_storage_16  STORAGE      0.00     0.00     0.00     1  14:30        0.00
  c_125_vr_storage_8   STORAGE      0.00     0.00     0.00     1  14:10        0.00
  c_124_storage        STORAGE      0.01     0.03    14.25    30  00:00        0.03
  c_136_vr_storage_28  STORAGE      0.00     0.00     0.00     0  15:00        0.00
  c_135_vr_storage_18  STORAGE      0.00     0.00     0.00     1  14:20        0.00
  c_131_vr_storage_18  STORAGE      0.00     0.00     0.00     0  14:35        0.00
  c_130_vr_storage_8   STORAGE      0.00     0.00     0.00     1  14:10        0.00
  c_134_vr_storage_8   STORAGE      0.00     0.00     0.00     1  14:10        0.00
  c_132_vr_storage_8   STORAGE      0.00     0.00     0.00     1  14:10        0.00
  Aalst_gemaal         STORAGE      0.32     0.47     0.47    13  22:35        0.47
  Mierlo_1             STORAGE      0.00     0.00    14.80     0  00:00        0.00
  pre_ontvangstkelder  STORAGE      0.00     0.01     8.01    14  03:03        0.01
  Eindhoven            STORAGE      0.00     0.00     0.00     0  00:00        0.00
  c_150_vr_storage_57  STORAGE      0.00     0.00     0.00     1  14:55        0.00
  c_123_vr_storage_40  STORAGE      0.00     0.00     0.00     1  14:40        0.00
  c_143_vr_storage_70  STORAGE      0.00     0.00     0.00     0  15:00        0.00
  c_147_vr_storage_4   STORAGE      0.00     0.00     0.00     0  00:00        0.00
  c_160_vr_storage_8   STORAGE      0.00     0.00     0.00     1  14:10        0.00
  c_145_vr_storage_4   STORAGE      0.00     0.00     0.00     1  14:05        0.00
  c_144_vr_storage_19  STORAGE      0.00     0.00     0.00     1  14:20        0.00
  c_142_vr_storage_35  STORAGE      0.00     0.00     0.00     1  14:35        0.00
  c_148_vr_storage_12  STORAGE      0.00     0.00     0.00     1  14:10        0.00
  c_149_vr_storage_17  STORAGE      0.00     0.00     0.00     0  00:00        0.00
  c_151_vr_storage_22  STORAGE      0.00     0.00     0.00     1  14:20        0.00
  c_161_vr_storage_32  STORAGE      0.00     0.00     0.00     0  00:00        0.00
  c_138_vr_storage_22  STORAGE      0.00     0.00     0.00     0  14:30        0.00
  c_139_vr_storage_8   STORAGE      0.00     0.00     0.00     0  00:00        0.00
  c_137_vr_storage_4   STORAGE      0.00     0.00     0.00     1  14:05        0.00
  c_122_vr_storage_29  STORAGE      0.00     0.00     0.00     1  14:30        0.00
  c_121_vr_storage_12  STORAGE      0.00     0.00     0.00     1  14:25        0.00
  c_120_vr_storage_8   STORAGE      0.00     0.00     0.00     1  14:10        0.00
  c_119_vr_storage_80  STORAGE      0.00     0.00     0.00     0  15:00        0.00
  c_100_vr_storage_10  STORAGE      0.00     0.00     0.00     1  14:10        0.00
  c_118_vr_storage_13  STORAGE      0.00     0.00     0.00     0  00:00        0.00
  c_116_vr_storage_15  STORAGE      0.00     0.00     0.00     1  14:30        0.00
  c_114_vr_storage_10  STORAGE      0.00     0.00     0.00     1  14:10        0.00
  c_112_vr_storage_21  STORAGE      0.00     0.00     0.00     1  14:20        0.00
  c_107_vr_storage_36  STORAGE      0.00     0.00     0.00     1  14:55        0.00
  c_107_2_vr_storage_12 STORAGE      0.00     0.00     0.00     1  14:10        0.00
  c_106_vr_storage_13  STORAGE      0.00     0.00     0.00     1  14:15        0.00
  c_99_vr_storage_41   STORAGE      0.00     0.00     0.00     1  14:55        0.00
  c_103_vr_storage_8   STORAGE      0.00     0.00     0.00     1  14:10        0.00
  c_98_vr_storage_20   STORAGE      0.00     0.00     0.00     1  14:20        0.00
  
  
  *******************
  Node Inflow Summary
  *******************
  
  -------------------------------------------------------------------------------------------------
                                  Maximum  Maximum                  Lateral       Total        Flow
                                  Lateral    Total  Time of Max      Inflow      Inflow     Balance
                                   Inflow   Inflow   Occurrence      Volume      Volume       Error
  Node                 Type           CMS      CMS  days hr:min    10^6 ltr    10^6 ltr     Percent
  -------------------------------------------------------------------------------------------------
  Nod_100              JUNCTION     0.000    0.127     6  21:31           0         281       0.000
  Mierlo_2             JUNCTION     0.000    0.042     1  15:30           0        87.6       0.000
  Nod_890              JUNCTION     0.000    0.370     0  00:16           0        1.59      19.840
  Nod_891              JUNCTION     0.000    0.258     0  00:19           0       0.903      18.131
  Nod_892              JUNCTION     0.000    0.148     0  00:02           0       0.644      10.581
  Nod_A*HLCMRZ1135     JUNCTION     0.000    0.315     0  00:00           0       0.356      13.403
  Nod_103              JUNCTION     0.000    0.127    29  22:05           0         281       0.051
  Nod_104              JUNCTION     0.000    0.269     0  00:00           0         282       0.017
  Nod_105              JUNCTION     0.000    0.129    29  22:39           0         282      -0.005
  Nod_106              JUNCTION     0.000    0.315     0  00:00           0         282       0.000
  Nod_107              JUNCTION     0.000    0.220     0  00:01           0         282      -0.029
  Nod_108              JUNCTION     0.000    0.167     0  00:02           0         282       0.020
  Nod_109              JUNCTION     0.000    0.129    29  23:36           0         282      -0.089
  Nod_110              JUNCTION     0.000    1.120    14  01:27           0    1.44e+03       0.003
  Nod_111              JUNCTION     0.000    1.120    14  01:29           0    1.44e+03       0.025
  Nod_112              JUNCTION     0.000    1.120    14  01:27           0    1.44e+03       0.018
  Nod_113              JUNCTION     0.000    1.120    14  02:09           0    1.44e+03       0.018
  Nod_114              JUNCTION     0.000    1.120    14  02:14           0    1.44e+03       0.002
  Nod_115              JUNCTION     0.000    1.120    14  02:29           0    1.44e+03       0.002
  Nod_116              JUNCTION     0.000    1.120    14  02:31           0    1.44e+03       0.008
  Nod_117              JUNCTION     0.000    1.120    14  02:39           0    1.44e+03       0.029
  Nod_118              JUNCTION     0.000    2.931    14  06:20           0    1.78e+03       0.023
  Nod_119              JUNCTION     0.000    0.982     0  00:01           0         282      -0.003
  Nod_120              JUNCTION     0.000    0.698     0  00:02           0         282      -0.006
  Nod_121              JUNCTION     0.000    0.536     0  00:04           0         282      -0.002
  Nod_122              JUNCTION     0.000    0.422     0  00:06           0         282       0.009
  Nod_123              JUNCTION     0.000    1.248    14  03:09           0    1.72e+03       0.003
  Nod_124              JUNCTION     0.000    1.245    14  03:06           0    1.72e+03       0.000
  Nod_126              JUNCTION     0.000    1.900     0  00:00           0    1.44e+03      -0.011
  Nod_127              JUNCTION     0.000    1.120    13  22:35           0    1.44e+03       0.027
  Nod_128              JUNCTION     0.000    1.120    13  23:25           0    1.44e+03      -0.026
  Nod_129              JUNCTION     0.000    1.123    14  00:08           0    1.44e+03      -0.000
  Nod_130              JUNCTION     0.000    1.122    14  00:31           0    1.44e+03       0.003
  Nod_131              JUNCTION     0.000    1.122    14  00:32           0    1.44e+03       0.009
  Nod_132              JUNCTION     0.000    1.121    14  00:41           0    1.44e+03       0.007
  Nod_133              JUNCTION     0.000    1.121    14  00:53           0    1.44e+03       0.007
  Nod_134              JUNCTION     0.000    1.120    14  01:02           0    1.44e+03       0.008
  Nod_135              JUNCTION     0.000    1.120    14  01:12           0    1.44e+03       0.006
  Nod_136              JUNCTION     0.000    1.120    14  01:17           0    1.44e+03       0.041
  Nod_222              JUNCTION     0.000    3.906    14  11:19           0    1.78e+03      -0.000
  Nod_233              JUNCTION     0.000    1.509    14  11:16           0    1.44e+03      -0.014
  Nod_244              JUNCTION     0.000    1.236    14  06:20           0    1.44e+03       0.002
  Nod_266              JUNCTION     0.000    1.199    14  06:21           0    1.44e+03       0.004
  Nod_277              JUNCTION     0.000    1.162    14  06:22           0    1.44e+03       0.005
  cso_Geldrop          OUTFALL      0.000    0.000     0  00:00           0           0       0.000 ltr
  cso_gb_136           OUTFALL      0.000    0.000     0  00:00           0           0       0.000 ltr
  cso_RZ               OUTFALL      0.000    0.000     0  00:00           0           0       0.000 ltr
  cso_ES_2             OUTFALL      0.000    0.000     0  00:00           0           0       0.000 ltr
  cso_ES_1             OUTFALL      0.000    0.000     0  00:00           0           0       0.000 ltr
  cso_AALST            OUTFALL      0.000    0.000     0  00:00           0           0       0.000 ltr
  out_ES               OUTFALL      0.000    0.391    23  01:55           0         905       0.000
  out_RZ               OUTFALL      0.000    1.243    14  03:03           0    1.72e+03       0.000
  c_24_vr_storage_175  STORAGE      0.451    0.455     0  14:25         950         959      -0.000
  c_23_vr_storage_7    STORAGE      0.001    0.001     0  14:00        1.77        1.77      -0.000
  c_22_vr_storage_5    STORAGE      0.000    0.000     0  00:00           0           0       0.000 ltr
  c_21_vr_storage_7    STORAGE      0.001    0.001     0  14:00        1.66        1.66      -0.000
  c_12_vr_storage_8    STORAGE      0.001    0.001     0  14:00        2.37        2.37      -0.000
  c_20_vr_storage_13   STORAGE      0.000    0.000     0  00:00           0           0       0.000 ltr
  c_19_vr_storage_7    STORAGE      0.001    0.001     0  14:00        1.33        1.33      -0.000
  c_10_vr_storage_10   STORAGE      0.000    0.000     0  00:00           0           0       0.000 ltr
  c_16_vr_storage_20   STORAGE      0.000    0.000     0  00:00           0           0       0.000 ltr
  c_15_vr_storage_24   STORAGE      0.001    0.001     0  14:00        1.95        1.95      -0.000
  c_14_vr_storage_24   STORAGE      0.000    0.000     0  00:00           0           0       0.000 ltr
  pipe_ES              STORAGE      0.000    0.485     0  00:25           0         957       0.008
  pipe_Geldrop         STORAGE      0.000    0.588     0  00:25           0         196       0.018
  gb_136               STORAGE      0.000    0.462     0  00:25           0        87.7       0.001
  c_129_vr_storage_2   STORAGE      0.000    0.000     0  00:00           0           0       0.000 ltr
  c_128_vr_storage_64  STORAGE      0.063    0.153     0  00:25         134         196      -0.000
  c_1285_vr_storage_10 STORAGE      0.001    0.001     0  14:00        2.94        2.94      -0.000
  c_127_vr_storage_46  STORAGE      0.024    0.034     0  00:10        51.1        59.7      -0.000
  c_126_vr_storage_16  STORAGE      0.003    0.004     0  14:10        6.58        8.58      -0.000
  c_125_vr_storage_8   STORAGE      0.001    0.001     0  14:00           2           2      -0.000
  c_124_storage        STORAGE      0.013    0.013     0  14:00          27          27       0.011
  c_136_vr_storage_28  STORAGE      0.017    0.084     0  00:25        35.1        87.7      -0.001
  c_135_vr_storage_18  STORAGE      0.009    0.009     0  14:00        19.8        19.8      -0.000
  c_131_vr_storage_18  STORAGE      0.009    0.012     0  14:10        18.8        24.5      -0.000
  c_130_vr_storage_8   STORAGE      0.003    0.003     0  14:00        5.72        5.72      -0.000
  c_134_vr_storage_8   STORAGE      0.002    0.002     0  14:00        4.21        4.21      -0.000
  c_132_vr_storage_8   STORAGE      0.002    0.002     0  14:00        4.16        4.16      -0.000
  Aalst_gemaal         STORAGE      0.000    4.318     0  00:25           0    1.48e+03       0.000
  Mierlo_1             STORAGE      0.000    0.042     1  15:30           0        87.6       0.000
  pre_ontvangstkelder  STORAGE      0.000    1.244    14  03:02           0    1.72e+03      -0.000
  Eindhoven            STORAGE      0.000    0.391    23  01:55           0         905       0.000
  c_150_vr_storage_57  STORAGE      0.021    0.021     0  14:00        45.3        45.3      -0.000
  c_123_vr_storage_40  STORAGE      0.029    0.029     0  14:00        60.3        60.3      -0.000
  c_143_vr_storage_70  STORAGE      0.254    0.507     0  00:25         536         974      -0.000
  c_147_vr_storage_4   STORAGE      0.000    0.000     0  00:00           0           0       0.000 ltr
  c_160_vr_storage_8   STORAGE      0.155    0.155     0  14:00         327         327      -0.000
  c_145_vr_storage_4   STORAGE      0.002    0.002     0  14:00        4.26        4.26      -0.000
  c_144_vr_storage_19  STORAGE      0.005    0.005     0  14:00        10.7        10.7      -0.000
  c_142_vr_storage_35  STORAGE      0.025    0.025     0  14:00          52          52      -0.000
  c_148_vr_storage_12  STORAGE      0.003    0.003     0  14:00        5.74        5.74      -0.000
  c_149_vr_storage_17  STORAGE      0.000    0.000     0  00:00           0           0       0.000 ltr
  c_151_vr_storage_22  STORAGE      0.002    0.002     0  14:00        4.37        4.37      -0.000
  c_161_vr_storage_32  STORAGE      0.000    0.000     0  00:00           0           0       0.000 ltr
  c_138_vr_storage_22  STORAGE      0.011    0.017     0  14:05        24.1        35.1      -0.000
  c_139_vr_storage_8   STORAGE      0.000    0.000     0  00:00           0           0       0.000 ltr
  c_137_vr_storage_4   STORAGE      0.005    0.005     0  14:00          11          11      -0.000
  c_122_vr_storage_29  STORAGE      0.015    0.015     0  14:00        31.1        31.1      -0.000
  c_121_vr_storage_12  STORAGE      0.004    0.007     0  14:10        7.85        15.4      -0.000
  c_120_vr_storage_8   STORAGE      0.004    0.004     0  14:00        7.59        7.59      -0.000
  c_119_vr_storage_80  STORAGE      0.094    0.096     0  14:10         199         203      -0.000
  c_100_vr_storage_10  STORAGE      0.002    0.002     0  14:00        4.21        4.21      -0.000
  c_118_vr_storage_13  STORAGE      0.000    0.000     0  00:00           0           0       0.000 ltr
  c_116_vr_storage_15  STORAGE      0.004    0.006     0  14:10        8.68        13.3      -0.000
  c_114_vr_storage_10  STORAGE      0.002    0.002     0  14:00        4.57        4.57      -0.000
  c_112_vr_storage_21  STORAGE      0.005    0.005     0  14:00        11.5        11.5      -0.000
  c_107_vr_storage_36  STORAGE      0.023    0.027     0  14:15        47.6        57.9      -0.000
  c_107_2_vr_storage_12 STORAGE      0.000    0.000     0  14:00       0.104       0.104      -0.000
  c_106_vr_storage_13  STORAGE      0.005    0.005     0  14:00        10.2        10.2      -0.000
  c_99_vr_storage_41   STORAGE      0.022    0.024     0  14:10          46        49.9      -0.000
  c_103_vr_storage_8   STORAGE      0.002    0.002     0  14:00        3.95        3.95      -0.000
  c_98_vr_storage_20   STORAGE      0.008    0.008     0  14:00        17.6        17.6      -0.000
  
  
  **********************
  Node Surcharge Summary
  **********************
  
  No nodes were surcharged.
  
  
  *********************
  Node Flooding Summary
  *********************
  
  No nodes were flooded.
  
  
  **********************
  Storage Volume Summary
  **********************
  
  ------------------------------------------------------------------------------------------------
                         Average    Avg   Evap  Exfil     Maximum    Max    Time of Max    Maximum
                          Volume   Pcnt   Pcnt   Pcnt      Volume   Pcnt     Occurrence    Outflow
  Storage Unit           1000 m³   Full   Loss   Loss     1000 m³   Full    days hr:min        CMS
  ------------------------------------------------------------------------------------------------
  c_24_vr_storage_175      1.568    0.0    0.0    0.0       2.397    0.0       0  15:25      0.485
  c_23_vr_storage_7        0.000    0.0    0.0    0.0       0.000    0.0       1  14:05      0.001
  c_22_vr_storage_5        0.000    0.0    0.0    0.0       0.000    0.0       0  00:00      0.000
  c_21_vr_storage_7        0.000    0.0    0.0    0.0       0.000    0.0       1  14:05      0.001
  c_12_vr_storage_8        0.000    0.0    0.0    0.0       0.000    0.0       1  14:10      0.001
  c_20_vr_storage_13       0.000    0.0    0.0    0.0       0.000    0.0       0  00:00      0.000
  c_19_vr_storage_7        0.000    0.0    0.0    0.0       0.000    0.0       1  14:05      0.001
  c_10_vr_storage_10       0.000    0.0    0.0    0.0       0.000    0.0       0  00:00      0.000
  c_16_vr_storage_20       0.000    0.0    0.0    0.0       0.000    0.0       0  00:00      0.000
  c_15_vr_storage_24       0.000    0.0    0.0    0.0       0.001    0.0       1  14:25      0.001
  c_14_vr_storage_24       0.000    0.0    0.0    0.0       0.000    0.0       0  00:00      0.000
  pipe_ES                 49.735   16.6    0.0    0.0      52.881   17.6      23  01:55      0.391
  pipe_Geldrop             1.904    3.8    0.0    0.0       2.061    4.1       6  23:10      0.092
  gb_136                   0.052    3.4    0.0    0.0       0.057    3.8       0  15:30      0.042
  c_129_vr_storage_2       0.000    0.0    0.0    0.0       0.000    0.0       0  00:00      0.000
  c_128_vr_storage_64      0.127    0.0    0.0    0.0       0.194    0.0       0  15:00      0.588
  c_1285_vr_storage_10     0.000    0.0    0.0    0.0       0.000    0.0       1  14:10      0.001
  c_127_vr_storage_46      0.027    0.0    0.0    0.0       0.041    0.0       0  15:00      0.095
  c_126_vr_storage_16      0.001    0.0    0.0    0.0       0.002    0.0       1  14:30      0.012
  c_125_vr_storage_8       0.000    0.0    0.0    0.0       0.000    0.0       1  14:10      0.001
  c_124_storage           13.067    0.1    0.0    0.0      25.296    0.3      30  00:00      0.002
  c_136_vr_storage_28      0.028    0.0    0.0    0.0       0.043    0.0       0  15:00      0.462
  c_135_vr_storage_18      0.004    0.0    0.0    0.0       0.006    0.0       1  14:20      0.009
  c_131_vr_storage_18      0.005    0.0    0.0    0.0       0.008    0.0       0  14:35      0.057
  c_130_vr_storage_8       0.001    0.0    0.0    0.0       0.001    0.0       1  14:10      0.003
  c_134_vr_storage_8       0.000    0.0    0.0    0.0       0.001    0.0       1  14:10      0.002
  c_132_vr_storage_8       0.000    0.0    0.0    0.0       0.001    0.0       1  14:10      0.002
  Aalst_gemaal            32.316   16.2    0.0    0.0      47.030   23.5      13  22:35      1.120
  Mierlo_1                 0.000    0.0    0.0    0.0       0.000    0.0       0  00:00      0.042
  pre_ontvangstkelder      0.000    0.0    0.0    0.0       0.001    0.3      14  03:03      1.243
  Eindhoven                0.000    0.0    0.0    0.0       0.000    0.0       0  00:00      0.391
  c_150_vr_storage_57      0.024    0.0    0.0    0.0       0.037    0.0       1  14:55      0.021
  c_123_vr_storage_40      0.023    0.0    0.0    0.0       0.036    0.0       1  14:40      0.029
  c_143_vr_storage_70      0.685    0.0    0.0    0.0       1.047    0.0       0  15:00      3.952
  c_147_vr_storage_4       0.000    0.0    0.0    0.0       0.000    0.0       0  00:00      0.000
  c_160_vr_storage_8       0.032    0.0    0.0    0.0       0.050    0.0       1  14:10      0.155
  c_145_vr_storage_4       0.000    0.0    0.0    0.0       0.000    0.0       1  14:05      0.002
  c_144_vr_storage_19      0.002    0.0    0.0    0.0       0.003    0.0       1  14:20      0.005
  c_142_vr_storage_35      0.018    0.0    0.0    0.0       0.027    0.0       1  14:35      0.025
  c_148_vr_storage_12      0.001    0.0    0.0    0.0       0.001    0.0       1  14:10      0.003
  c_149_vr_storage_17      0.000    0.0    0.0    0.0       0.000    0.0       0  00:00      0.000
  c_151_vr_storage_22      0.001    0.0    0.0    0.0       0.001    0.0       1  14:20      0.002
  c_161_vr_storage_32      0.000    0.0    0.0    0.0       0.000    0.0       0  00:00      0.000
  c_138_vr_storage_22      0.007    0.0    0.0    0.0       0.011    0.0       0  14:30      0.103
  c_139_vr_storage_8       0.000    0.0    0.0    0.0       0.000    0.0       0  00:00      0.000
  c_137_vr_storage_4       0.001    0.0    0.0    0.0       0.001    0.0       1  14:05      0.005
  c_122_vr_storage_29      0.009    0.0    0.0    0.0       0.014    0.0       1  14:30      0.015
  c_121_vr_storage_12      0.002    0.0    0.0    0.0       0.003    0.0       1  14:25      0.039
  c_120_vr_storage_8       0.001    0.0    0.0    0.0       0.001    0.0       1  14:10      0.004
  c_119_vr_storage_80      0.158    0.0    0.0    0.0       0.242    0.0       0  15:00      0.121
  c_100_vr_storage_10      0.000    0.0    0.0    0.0       0.001    0.0       1  14:10      0.002
  c_118_vr_storage_13      0.000    0.0    0.0    0.0       0.000    0.0       0  00:00      0.000
  c_116_vr_storage_15      0.002    0.0    0.0    0.0       0.003    0.0       1  14:30      0.025
  c_114_vr_storage_10      0.000    0.0    0.0    0.0       0.001    0.0       1  14:10      0.002
  c_112_vr_storage_21      0.002    0.0    0.0    0.0       0.003    0.0       1  14:20      0.005
  c_107_vr_storage_36      0.020    0.0    0.0    0.0       0.031    0.0       1  14:55      0.108
  c_107_2_vr_storage_12     0.000    0.0    0.0    0.0       0.000    0.0       1  14:10      0.000
  c_106_vr_storage_13      0.001    0.0    0.0    0.0       0.002    0.0       1  14:15      0.005
  c_99_vr_storage_41       0.020    0.0    0.0    0.0       0.030    0.0       1  14:55      0.053
  c_103_vr_storage_8       0.000    0.0    0.0    0.0       0.001    0.0       1  14:10      0.002
  c_98_vr_storage_20       0.003    0.0    0.0    0.0       0.005    0.0       1  14:20      0.008
  
  
  ***********************
  Outfall Loading Summary
  ***********************
  
  -----------------------------------------------------------
                         Flow       Avg       Max       Total
                         Freq      Flow      Flow      Volume
  Outfall Node           Pcnt       CMS       CMS    10^6 ltr
  -----------------------------------------------------------
  cso_Geldrop            0.00     0.000     0.000       0.000
  cso_gb_136             0.00     0.000     0.000       0.000
  cso_RZ                 0.00     0.000     0.000       0.000
  cso_ES_2               0.00     0.000     0.000       0.000
  cso_ES_1               0.00     0.000     0.000       0.000
  cso_AALST              0.00     0.000     0.000       0.000
  out_ES                99.86     0.350     0.391     904.671
  out_RZ               100.00     0.665     1.243    1722.405
  -----------------------------------------------------------
  System                24.98     1.014     1.632    2627.077
  
  
  ********************
  Link Flow Summary
  ********************
  
  -----------------------------------------------------------------------------
                                 Maximum  Time of Max   Maximum    Max/    Max/
                                  |Flow|   Occurrence   |Veloc|    Full    Full
  Link                 Type          CMS  days hr:min     m/sec    Flow   Depth
  -----------------------------------------------------------------------------
  Con_161              CONDUIT     0.042     1  15:30     10.72    0.00    0.03
  Con_158              CONDUIT     0.258     0  00:19      0.90    0.01    0.30
  Con_159              CONDUIT     0.114     0  00:22      0.32    0.02    0.27
  Con_160              CONDUIT     0.315     0  00:00      1.02    0.02    0.31
  Con_101              CONDUIT     0.127    29  22:05      0.34    0.39    0.35
  Con_102              CONDUIT     0.127     6  22:29      0.39    0.28    0.32
  Con_103              CONDUIT     0.175     0  00:00      0.45    0.23    0.37
  Con_104              CONDUIT     0.269     0  00:00      1.48    0.27    0.28
  Con_105              CONDUIT     0.220     0  00:01      0.49    0.47    0.42
  Con_106              CONDUIT     0.158     0  00:03      0.57    0.21    0.29
  Con_107              CONDUIT     0.129    29  23:36      0.47    0.03    0.20
  Con_108              CONDUIT     0.982     0  00:01      1.30    0.22    0.21
  Con_109              CONDUIT     1.120    14  01:29      0.80    0.19    0.25
  Con_110              CONDUIT     1.120    14  01:27      0.92    0.17    0.22
  Con_157              CONDUIT     0.370     0  00:16      0.91    0.01    0.34
  Con_111              CONDUIT     1.120    14  02:09      0.61    0.20    0.36
  Con_112              CONDUIT     1.120    14  02:14      0.82    0.15    0.25
  Con_113              CONDUIT     1.120    14  02:29      0.97    0.26    0.32
  Con_114              CONDUIT     1.120    14  02:31      0.97    0.28    0.32
  Con_115              CONDUIT     1.120    14  02:39      0.95    0.27    0.33
  Con_116              CONDUIT     1.226    14  07:30      0.97    0.30    0.41
  Con_117              CONDUIT     3.906    14  11:19      1.87    0.26    0.58
  Con_118              CONDUIT     0.698     0  00:02      1.08    0.18    0.18
  Con_119              CONDUIT     0.536     0  00:04      0.87    0.11    0.15
  Con_120              CONDUIT     0.422     0  00:06      0.69    0.09    0.17
  Con_121              CONDUIT     0.391     0  00:10      0.57    0.08    0.21
  Con_122              CONDUIT     1.245    14  03:06      1.85    0.27    0.17
  Con_123              CONDUIT     1.244    14  03:02      2.94    0.05    0.10
  Con_125              CONDUIT     1.123    14  00:08      0.83    0.49    0.48
  Con_126              CONDUIT     1.120    13  23:25      0.83    0.77    0.47
  Con_127              CONDUIT     1.900     0  00:00      1.72    0.30    0.40
  Con_128              CONDUIT     1.122    14  00:31      1.21    0.47    0.32
  Con_129              CONDUIT     1.122    14  00:32      1.09    0.15    0.26
  Con_130              CONDUIT     1.121    14  00:41      0.69    0.24    0.30
  Con_140              CONDUIT     1.121    14  00:53      0.68    0.21    0.30
  Con_141              CONDUIT     1.120    14  01:02      0.65    0.24    0.31
  Con_142              CONDUIT     1.120    14  01:12      0.63    0.24    0.32
  Con_143              CONDUIT     1.120    14  01:17      0.61    0.23    0.33
  Con_144              CONDUIT     1.120    14  01:27      0.76    0.30    0.26
  Con_152              CONDUIT     1.509    14  11:16      0.90    0.56    0.48
  Con_153              CONDUIT     1.236    14  06:20      1.01    0.43    0.40
  Con_154              CONDUIT     1.199    14  06:21      0.88    0.47    0.38
  Con_155              CONDUIT     1.162    14  06:22      0.82    0.36    0.35
  Con_156              CONDUIT     1.131    14  06:01      1.00    0.31    0.28
  geldrop_out_east     CONDUIT     0.020     0  18:44      0.31    0.75    0.31
  geldrop_out_north    CONDUIT     0.088     6  23:10      0.25    0.06    0.33
  mierlo_out           CONDUIT     0.042     1  15:30      4.75    0.01    0.06
  eeneind_out          CONDUIT     0.002    30  00:00      0.07    0.02    0.55
  eindhoven_out        CONDUIT     0.391    23  01:55      2.35   14.36    0.26
  P_c_24_d_175         PUMP        0.485     0  00:25              0.01
  P_c_23_d_7           PUMP        0.001     0  14:05              0.00
  P_c_22_d_5           PUMP        0.000     0  00:00              0.00
  P_c_21_d_7           PUMP        0.001     0  14:05              0.00
  P_c_12_d_8           PUMP        0.001     0  14:10              0.00
  P_c_20_d_13          PUMP        0.000     0  00:00              0.00
  P_c_19_d_7           PUMP        0.001     0  14:05              0.00
  P_c_10_d_10          PUMP        0.000     0  00:00              0.00
  P_c_16_d_20          PUMP        0.000     0  00:00              0.00
  P_c_15_d_24          PUMP        0.001     0  14:25              0.00
  P_c_14_d_24          PUMP        0.000     0  00:00              0.00
  P_c_129_d_2          PUMP        0.000     0  00:00              0.00
  P_c_128_d_64         PUMP        0.588     0  00:25              0.01
  P_c_1285_d_10        PUMP        0.001     0  14:10              0.00
  P_c_127_d_46         PUMP        0.095     0  00:25              0.00
  P_c_126_d_16         PUMP        0.012     0  00:10              0.00
  P_c_125_d_8          PUMP        0.001     0  14:10              0.00
  P_c_136_d_28         PUMP        0.462     0  00:25              0.01
  P_c_135_d_18         PUMP        0.009     0  14:20              0.00
  P_c_131_d_18         PUMP        0.057     0  00:25              0.00
  P_c_130_d_8          PUMP        0.003     0  14:10              0.00
  P_c_134_d_8          PUMP        0.002     0  14:10              0.00
  P_c_132_d_8          PUMP        0.002     0  14:10              0.00
  Con_1119.1           PUMP        0.042     1  15:30              0.13
  P_riool_zuid_out     PUMP        1.243    14  03:03              0.38
  P_eindhoven_out      PUMP        0.391    23  01:55              0.05
  P_c_150_d_57         PUMP        0.021     0  14:55              0.00
  P_c_123_d_40         PUMP        0.029     0  14:40              0.00
  P_c_143_d_70         PUMP        3.952     0  00:25              0.08
  P_c_147_d_4          PUMP        0.000     0  00:00              0.00
  P_c_160_d_8          PUMP        0.155     0  14:10              0.00
  P_c_145_d_4          PUMP        0.002     0  14:05              0.00
  P_c_144_d_19         PUMP        0.005     0  14:20              0.00
  P_c_142_d_35         PUMP        0.025     0  14:35              0.00
  P_c_148_d_12         PUMP        0.003     0  14:10              0.00
  P_c_149_d_17         PUMP        0.000     0  00:00              0.00
  P_c_151_d_22         PUMP        0.002     0  14:20              0.00
  P_c_161_d_32         PUMP        0.000     0  00:00              0.00
  P_c_138_d_22         PUMP        0.103     0  00:25              0.00
  P_c_139_d_8          PUMP        0.000     0  00:00              0.00
  P_c_137_d_4          PUMP        0.005     0  14:05              0.00
  P_c_122_d_29         PUMP        0.015     0  14:30              0.00
  P_c_121_d_12         PUMP        0.039     0  00:10              0.00
  P_c_120_d_8          PUMP        0.004     0  14:10              0.00
  P_c_119_d_80         PUMP        0.121     0  00:25              0.00
  P_c_100_d_10         PUMP        0.002     0  14:10              0.00
  P_c_118_d_13         PUMP        0.000     0  00:00              0.00
  P_c_116_d_15         PUMP        0.025     0  00:10              0.00
  P_c_114_d_10         PUMP        0.002     0  14:10              0.00
  P_c_112_d_21         PUMP        0.005     0  14:20              0.00
  P_c_107_d_36         PUMP        0.108     0  00:25              0.00
  P_c_107_2_d_12       PUMP        0.000     0  14:10              0.00
  P_c_106_d_13         PUMP        0.005     0  14:15              0.00
  P_c_99_d_41          PUMP        0.053     0  00:25              0.00
  P_c_103_d_8          PUMP        0.002     0  14:10              0.00
  P_c_98_d_20          PUMP        0.008     0  14:20              0.00
  P_aalst_1            PUMP        0.560     0  17:35              1.00
  P_aalst_2            PUMP        0.560    13  22:35              1.00
  P_aalst_3            PUMP        0.000     0  00:00              0.00
  P_aalst_4            PUMP        0.000     0  00:00              0.00
  weir_Geldrop         WEIR        0.000     0  00:00                      0.00
  weir_gb_136          WEIR        0.000     0  00:00                      0.00
  Con_A*HLCMRZ1135.1   WEIR        0.000     0  00:00                      0.00
  E_weir               WEIR        0.000     0  00:00                      0.00
  weir_ES              WEIR        0.000     0  00:00                      0.00
  Aalst_weir           WEIR        0.000     0  00:00                      0.00
  
  
  ***************************
  Flow Classification Summary
  ***************************
  
  -------------------------------------------------------------------------------------
                      Adjusted    ---------- Fraction of Time in Flow Class ---------- 
                       /Actual         Up    Down  Sub   Sup   Up    Down  Norm  Inlet 
  Conduit               Length    Dry  Dry   Dry   Crit  Crit  Crit  Crit  Ltd   Ctrl  
  -------------------------------------------------------------------------------------
  Con_161                 1.00   0.00  0.00  0.00  0.00  0.00  0.00  1.00  0.00  0.00
  Con_158                 1.00   0.00  0.00  0.00  1.00  0.00  0.00  0.00  0.00  0.00
  Con_159                 1.00   0.00  0.00  0.00  1.00  0.00  0.00  0.00  0.00  0.00
  Con_160                 1.00   0.00  0.00  0.00  1.00  0.00  0.00  0.00  0.00  0.00
  Con_101                 1.00   0.00  0.00  0.00  0.98  0.00  0.00  0.02  0.00  0.00
  Con_102                 1.00   0.00  0.00  0.00  1.00  0.00  0.00  0.00  0.00  0.00
  Con_103                 1.00   0.00  0.00  0.00  1.00  0.00  0.00  0.00  0.14  0.00
  Con_104                 1.00   0.00  0.00  0.00  1.00  0.00  0.00  0.00  0.00  0.00
  Con_105                 1.00   0.00  0.00  0.00  1.00  0.00  0.00  0.00  0.00  0.00
  Con_106                 1.00   0.00  0.00  0.00  0.00  0.00  0.00  1.00  0.00  0.00
  Con_107                 1.00   0.00  0.00  0.00  1.00  0.00  0.00  0.00  0.00  0.00
  Con_108                 1.00   0.00  0.00  0.00  1.00  0.00  0.00  0.00  1.00  0.00
  Con_109                 1.00   0.00  0.00  0.00  1.00  0.00  0.00  0.00  0.02  0.00
  Con_110                 1.00   0.00  0.00  0.00  0.98  0.00  0.00  0.02  0.00  0.00
  Con_157                 1.00   0.00  0.00  0.00  1.00  0.00  0.00  0.00  0.00  0.00
  Con_111                 1.00   0.00  0.00  0.00  1.00  0.00  0.00  0.00  0.00  0.00
  Con_112                 1.00   0.00  0.00  0.00  1.00  0.00  0.00  0.00  1.00  0.00
  Con_113                 1.00   0.00  0.00  0.00  1.00  0.00  0.00  0.00  0.02  0.00
  Con_114                 1.00   0.00  0.00  0.00  1.00  0.00  0.00  0.00  0.01  0.00
  Con_115                 1.00   0.00  0.00  0.00  1.00  0.00  0.00  0.00  0.98  0.00
  Con_116                 1.00   0.00  0.00  0.00  1.00  0.00  0.00  0.00  0.38  0.00
  Con_117                 1.00   0.00  0.00  0.00  1.00  0.00  0.00  0.00  0.16  0.00
  Con_118                 1.00   0.00  0.00  0.00  1.00  0.00  0.00  0.00  0.00  0.00
  Con_119                 1.00   0.00  0.00  0.00  1.00  0.00  0.00  0.00  0.98  0.00
  Con_120                 1.00   0.00  0.00  0.00  1.00  0.00  0.00  0.00  0.03  0.00
  Con_121                 1.00   0.00  0.00  0.00  1.00  0.00  0.00  0.00  0.00  0.00
  Con_122                 1.00   0.00  0.00  0.00  0.98  0.02  0.00  0.00  0.00  0.00
  Con_123                 1.00   0.00  0.00  0.00  0.00  0.00  0.00  1.00  0.00  0.00
  Con_125                 1.00   0.00  0.00  0.00  1.00  0.00  0.00  0.00  0.03  0.00
  Con_126                 1.00   0.00  0.00  0.00  1.00  0.00  0.00  0.00  0.00  0.00
  Con_127                 1.00   0.00  0.00  0.00  1.00  0.00  0.00  0.00  1.00  0.00
  Con_128                 1.00   0.00  0.00  0.00  0.00  0.00  0.00  1.00  0.00  0.00
  Con_129                 1.00   0.00  0.00  0.00  1.00  0.00  0.00  0.00  1.00  0.00
  Con_130                 1.00   0.00  0.00  0.00  1.00  0.00  0.00  0.00  0.00  0.00
  Con_140                 1.00   0.00  0.00  0.00  1.00  0.00  0.00  0.00  0.02  0.00
  Con_141                 1.00   0.00  0.00  0.00  1.00  0.00  0.00  0.00  0.02  0.00
  Con_142                 1.00   0.00  0.00  0.00  1.00  0.00  0.00  0.00  0.01  0.00
  Con_143                 1.00   0.00  0.00  0.00  1.00  0.00  0.00  0.00  0.02  0.00
  Con_144                 1.00   0.00  0.00  0.00  0.97  0.00  0.00  0.03  0.00  0.00
  Con_152                 1.00   0.00  0.00  0.00  1.00  0.00  0.00  0.00  0.20  0.00
  Con_153                 1.00   0.00  0.00  0.00  1.00  0.00  0.00  0.00  0.10  0.00
  Con_154                 1.00   0.00  0.00  0.00  1.00  0.00  0.00  0.00  0.00  0.00
  Con_155                 1.00   0.00  0.00  0.00  1.00  0.00  0.00  0.00  0.00  0.00
  Con_156                 1.00   0.00  0.00  0.00  1.00  0.00  0.00  0.00  0.03  0.00
  geldrop_out_east        1.00   0.00  0.00  0.00  1.00  0.00  0.00  0.00  0.00  0.00
  geldrop_out_north       1.00   0.00  0.00  0.00  1.00  0.00  0.00  0.00  1.00  0.00
  mierlo_out              1.00   0.00  0.00  0.00  0.00  1.00  0.00  0.00  0.00  0.00
  eeneind_out             1.00   0.00  0.00  0.00  1.00  0.00  0.00  0.00  1.00  0.00
  eindhoven_out           1.00   0.00  0.00  0.00  0.04  0.96  0.00  0.00  0.00  0.00
  
  
  *************************
  Conduit Surcharge Summary
  *************************
  
  ----------------------------------------------------------------------------
                                                           Hours        Hours 
                         --------- Hours Full --------   Above Full   Capacity
  Conduit                Both Ends  Upstream  Dnstream   Normal Flow   Limited
  ----------------------------------------------------------------------------
  eeneind_out                 0.01      0.01    707.42      0.01         0.01
  eindhoven_out               0.01      0.01      0.01    697.91         0.01
  
  
  ***************
  Pumping Summary
  ***************
  
  ---------------------------------------------------------------------------------------------------------
                                                  Min       Avg       Max     Total     Power    % Time Off
                        Percent   Number of      Flow      Flow      Flow    Volume     Usage    Pump Curve
  Pump                 Utilized   Start-Ups       CMS       CMS       CMS  10^6 ltr     Kw-hr    Low   High
  ---------------------------------------------------------------------------------------------------------
  P_c_24_d_175           100.00           1      0.00      0.37      0.49   957.386   1295.78    0.0  100.0
  P_c_23_d_7             100.00           1      0.00      0.00      0.00     1.767      0.01    0.0   89.9
  P_c_22_d_5               0.00           0      0.00      0.00      0.00     0.000      0.00    0.0    0.0
  P_c_21_d_7             100.00           1      0.00      0.00      0.00     1.663      0.01    0.0   87.4
  P_c_12_d_8             100.00           1      0.00      0.00      0.00     2.365      0.01    0.0   88.0
  P_c_20_d_13              0.00           0      0.00      0.00      0.00     0.000      0.00    0.0    0.0
  P_c_19_d_7             100.00           1      0.00      0.00      0.00     1.325      0.01    0.0   87.4
  P_c_10_d_10              0.00           0      0.00      0.00      0.00     0.000      0.00    0.0    0.0
  P_c_16_d_20              0.00           0      0.00      0.00      0.00     0.000      0.00    0.0    0.0
  P_c_15_d_24            100.00           1      0.00      0.00      0.00     1.949      0.01    0.0   91.3
  P_c_14_d_24              0.00           0      0.00      0.00      0.00     0.000      0.00    0.0    0.0
  P_c_129_d_2              0.00           0      0.00      0.00      0.00     0.000      0.00    0.0    0.0
  P_c_128_d_64           100.00           1      0.00      0.08      0.59   196.039   8141.07    0.0  100.0
  P_c_1285_d_10          100.00           1      0.00      0.00      0.00     2.937      0.00    0.0   88.0
  P_c_127_d_46           100.00           1      0.00      0.02      0.09    59.647      0.02    0.0  100.0
  P_c_126_d_16           100.00           1      0.00      0.00      0.01     8.575      0.00    0.0  100.0
  P_c_125_d_8            100.00           1      0.00      0.00      0.00     2.001      0.00    0.0   88.0
  P_c_136_d_28           100.00           1      0.00      0.03      0.46    87.681   3939.76    0.0  100.0
  P_c_135_d_18           100.00           1      0.00      0.01      0.01    19.775      0.00    0.0   90.9
  P_c_131_d_18           100.00           1      0.00      0.01      0.06    24.504      0.00    0.0  100.0
  P_c_130_d_8            100.00           1      0.00      0.00      0.00     5.717      0.00    0.0   88.0
  P_c_134_d_8            100.00           1      0.00      0.00      0.00     4.210      0.00    0.0   88.0
  P_c_132_d_8            100.00           1      0.00      0.00      0.00     4.158      0.00    0.0   90.3
  Con_1119.1             100.00           1      0.00      0.03      0.04    87.627     63.22    0.0    0.0
  P_riool_zuid_out       100.00           1      0.00      0.66      1.24  1722.406  37519.38    0.0    0.0
  P_eindhoven_out         99.84           1      0.00      0.35      0.39   904.671      0.00    0.0    0.0
  P_c_150_d_57           100.00           1      0.00      0.02      0.02    45.278     39.86    0.0   93.9
  P_c_123_d_40           100.00           1      0.00      0.02      0.03    60.249     53.00    0.0   92.4
  P_c_143_d_70           100.00           1      0.00      0.38      3.95   973.632    856.19    0.0  100.0
  P_c_147_d_4              0.00           0      0.00      0.00      0.00     0.000      0.00    0.0    0.0
  P_c_160_d_8            100.00           1      0.00      0.13      0.16   326.697      0.61    0.0   88.2
  P_c_145_d_4            100.00           1      0.00      0.00      0.00     4.262      0.01    0.0   87.4
  P_c_144_d_19           100.00           1      0.00      0.00      0.01    10.706      0.02    0.0   90.9
  P_c_142_d_35           100.00           1      0.00      0.02      0.02    51.938      0.10    0.0   92.0
  P_c_148_d_12           100.00           1      0.00      0.00      0.00     5.743      0.01    0.0   88.0
  P_c_149_d_17             0.00           0      0.00      0.00      0.00     0.000      0.00    0.0    0.0
  P_c_151_d_22           100.00           1      0.00      0.00      0.00     4.366      0.01    0.0   90.9
  P_c_161_d_32             0.00           0      0.00      0.00      0.00     0.000      0.00    0.0    0.0
  P_c_138_d_22           100.00           1      0.00      0.01      0.10    35.106      0.07    0.0  100.0
  P_c_139_d_8              0.00           0      0.00      0.00      0.00     0.000      0.00    0.0    0.0
  P_c_137_d_4            100.00           1      0.00      0.00      0.01    10.968      0.00    0.0   87.5
  P_c_122_d_29           100.00           1      0.00      0.01      0.01    31.050     27.30    0.0   91.7
  P_c_121_d_12           100.00           1      0.00      0.01      0.04    15.436     13.57    0.0  100.0
  P_c_120_d_8            100.00           1      0.00      0.00      0.00     7.589      0.00    0.0   88.0
  P_c_119_d_80           100.00           1      0.00      0.08      0.12   202.690    178.56    0.0  100.0
  P_c_100_d_10           100.00           1      0.00      0.00      0.00     4.210      0.00    0.0   88.0
  P_c_118_d_13             0.00           0      0.00      0.00      0.00     0.000      0.00    0.0    0.0
  P_c_116_d_15           100.00           1      0.00      0.01      0.02    13.253     11.65    0.0  100.0
  P_c_114_d_10           100.00           1      0.00      0.00      0.00     4.574      0.00    0.0   88.0
  P_c_112_d_21           100.00           1      0.00      0.00      0.01    11.460     10.07    0.0   90.9
  P_c_107_d_36           100.00           1      0.00      0.02      0.11    57.912     50.94    0.0  100.0
  P_c_107_2_d_12          87.27          23      0.00      0.00      0.00     0.096      0.00    0.0   96.8
  P_c_106_d_13           100.00           1      0.00      0.00      0.00    10.213      0.00    0.0   90.6
  P_c_99_d_41            100.00           1      0.00      0.02      0.05    49.908     43.91    0.0  100.0
  P_c_103_d_8            100.00           1      0.00      0.00      0.00     3.950      0.00    0.0   88.0
  P_c_98_d_20            100.00           1      0.00      0.01      0.01    17.592     15.46    0.0   91.0
  P_aalst_1               97.56           1      0.00      0.56      0.56  1415.922  70760.76    0.0  100.0
  P_aalst_2                1.88           1      0.00      0.56      0.56    27.213   1383.65    0.0  100.0
  P_aalst_3                0.00           0      0.00      0.00      0.00     0.000      0.00    0.0    0.0
  P_aalst_4                0.00           0      0.00      0.00      0.00     0.000      0.00    0.0    0.0
  

  Analysis begun on:  Thu Feb 20 21:18:04 2025
  Analysis ended on:  Thu Feb 20 21:20:48 2025
  Total elapsed time: 00:02:44