
  EPA STORM WATER MANAGEMENT MODEL - VERSION 5.2 (Build 5.2.4)
  PYSWMM TOOLKIT API - VERSION v1.0 (2023-11-27)
  ------------------------------------------------------------

  WARNING 02: maximum depth increased for Node gb127
  
  ****************
  Analysis Options
  ****************
  Flow Units ............... CMS
  Process Models:
    Rainfall/Runoff ........ YES
    RDII ................... NO
    Snowmelt ............... NO
    Groundwater ............ NO
    Flow Routing ........... YES
    Ponding Allowed ........ NO
    Water Quality .......... NO
  Infiltration Method ...... HORTON
  Flow Routing Method ...... DYNWAVE
  Surcharge Method ......... EXTRAN
  Starting Date ............ 07/01/2024 00:00:00
  Ending Date .............. 07/10/2024 00:00:00
  Antecedent Dry Days ...... 0.0
  Report Time Step ......... 00:05:00
  Wet Time Step ............ 00:01:00
  Dry Time Step ............ 00:10:00
  Routing Time Step ........ 2.00 sec
  Variable Time Step ....... YES
  Maximum Trials ........... 12
  Number of Threads ........ 2
  Head Tolerance ........... 0.000200 m
  
  
  *********************
  Rainfall File Summary
  *********************
  Station    First        Last         Recording   Periods    Periods    Periods
  ID         Date         Date         Frequency  w/Precip    Missing    Malfunc.
  -------------------------------------------------------------------------------
  ES         01/01/2024   12/31/2024       5 min    105217          0          0

  GE         01/01/2024   12/31/2024       5 min    105217          0          0

  RZ1        01/01/2024   12/31/2024       5 min    105217          0          0

  RZ2        01/01/2024   12/31/2024       5 min    105217          0          0

  
  
  **************************        Volume         Depth
  Runoff Quantity Continuity     hectare-m            mm
  **************************     ---------       -------
  Total Precipitation ......       119.668        28.366
  Evaporation Loss .........        41.024         9.724
  Infiltration Loss ........         0.000         0.000
  Surface Runoff ...........        59.608        14.129
  Final Storage ............        19.055         4.517
  Continuity Error (%) .....        -0.016
  
  
  **************************        Volume        Volume
  Flow Routing Continuity        hectare-m      10^6 ltr
  **************************     ---------     ---------
  Dry Weather Inflow .......        63.951       639.520
  Wet Weather Inflow .......        59.594       595.943
  Groundwater Inflow .......         0.000         0.000
  RDII Inflow ..............         0.000         0.000
  External Inflow ..........        28.139       281.393
  External Outflow .........       122.911      1229.127
  Flooding Loss ............         0.356         3.559
  Evaporation Loss .........         0.003         0.032
  Exfiltration Loss ........         0.000         0.000
  Initial Stored Volume ....         0.804         8.043
  Final Stored Volume ......        30.856       308.562
  Continuity Error (%) .....        -1.074
  
  
  *************************
  Highest Continuity Errors
  *************************
  Node Nod_A*HLCMRZ1135 (14.02%)
  Node Nod_891 (11.44%)
  Node J119 (-9.61%)
  Node Nod_890 (9.37%)
  Node J1 (-5.66%)
  
  
  ***************************
  Time-Step Critical Elements
  ***************************
  None
  
  
  ********************************
  Highest Flow Instability Indexes
  ********************************
  Link Con_117 (2)
  Link Con_152 (1)
  Link P_aalst_4 (1)
  
  
  *********************************
  Most Frequent Nonconverging Nodes
  *********************************
  Node cso_Geldrop (0.09%)
  Node cso_gb_136 (0.09%)
  Node cso_RZ (0.09%)
  Node cso_ES_1 (0.09%)
  Node cso_AALST (0.09%)
  
  
  *************************
  Routing Time Step Summary
  *************************
  Minimum Time Step           :     1.50 sec
  Average Time Step           :     2.00 sec
  Maximum Time Step           :     2.00 sec
  % of Time in Steady State   :     0.00
  Average Iterations per Step :     2.02
  % of Steps Not Converging   :     0.09
  Time Step Frequencies       :
      2.000 -  1.516 sec      :   100.00 %
      1.516 -  1.149 sec      :     0.00 %
      1.149 -  0.871 sec      :     0.00 %
      0.871 -  0.660 sec      :     0.00 %
      0.660 -  0.500 sec      :     0.00 %
  
  
  ***************************
  Subcatchment Runoff Summary
  ***************************
  
  ------------------------------------------------------------------------------------------------------------------------------
                            Total      Total      Total      Total     Imperv       Perv      Total       Total     Peak  Runoff
                           Precip      Runon       Evap      Infil     Runoff     Runoff     Runoff      Runoff   Runoff   Coeff
  Subcatchment                 mm         mm         mm         mm         mm         mm         mm    10^6 ltr      CMS
  ------------------------------------------------------------------------------------------------------------------------------
  c_24_catchment            25.14       0.00       9.76       0.00      10.07       0.00      10.07      193.26     9.40   0.401
  c_23_catchment            25.14       0.00       9.89       0.00       9.51       0.00       9.51        0.29     0.01   0.378
  c_22_catchment            25.14       0.00       9.89       0.00       9.51       0.00       9.51        0.15     0.01   0.378
  c_21_catchment            25.14       0.00       9.89       0.00       9.51       0.00       9.51        0.30     0.01   0.378
  c_12_catchment            25.14       0.00       9.89       0.00       9.51       0.00       9.51        0.35     0.02   0.378
  c_20_catchment            25.14       0.00       9.89       0.00       9.51       0.00       9.51        0.95     0.04   0.378
  c_19_catchment            25.14       0.00       9.89       0.00       9.51       0.00       9.51        0.32     0.02   0.378
  c_10_catchment            25.14       0.00      10.49       0.00       7.04       0.00       7.04        0.44     0.02   0.280
  c_16_catchment            25.14       0.00       9.89       0.00       9.51       0.00       9.51        2.51     0.12   0.378
  c_15_catchment            25.14       0.00       9.89       0.00       9.51       0.00       9.51        3.22     0.15   0.378
  c_14_catchment            25.14       0.00       9.89       0.00       9.51       0.00       9.51        3.39     0.16   0.378
  c_129_catchment           33.47       0.00       9.74       0.00      21.13       0.00      21.13        1.06     0.16   0.631
  c_128_catchment           33.47       0.00       9.98       0.00      20.41       0.00      20.41       52.06     5.85   0.610
  c_1285_catchment          33.47       0.00       9.82       0.00      20.91       0.00      20.91        1.21     0.17   0.625
  c_127_catchment           33.47       0.00       9.64       0.00      21.39       0.00      21.39       28.86     5.17   0.639
  c_126_catchment           33.47       0.00       9.72       0.00      21.20       0.00      21.20        3.35     0.54   0.633
  c_125_catchment           33.47       0.00       9.30       0.00      22.13       0.00      22.13        1.17     0.42   0.661
  c_124_catchment           33.47       0.00       8.98       0.00      22.74       0.00      22.74        0.23     0.22   0.679
  c_136_catchment           33.47       0.00      10.64       0.00      17.45       0.00      17.45        8.81     0.58   0.521
  c_135_catchment           33.47       0.00      10.49       0.00      18.25       0.00      18.25        4.01     0.28   0.545
  c_131_catchment           33.47       0.00      10.69       0.00      17.18       0.00      17.18        3.69     0.24   0.513
  c_130_catchment           33.47       0.00      10.25       0.00      19.37       0.00      19.37        0.76     0.06   0.579
  c_134_catchment           33.47       0.00      10.47       0.00      18.38       0.00      18.38        0.97     0.07   0.549
  c_132_catchment           33.47       0.00      10.25       0.00      19.37       0.00      19.37        0.76     0.06   0.579
  c_150_catchment           31.99       0.00       9.67       0.00      19.31       0.00      19.31       39.59     5.28   0.604
  c_123_catchment           31.99       0.00       9.79       0.00      18.75       0.00      18.75       19.03     2.02   0.586
  c_143_catchment           31.99       0.00      10.43       0.00      15.17       0.00      15.17       46.73     2.41   0.474
  c_147_catchment           31.99       0.00       9.59       0.00      19.60       0.00      19.60        0.84     0.13   0.613
  c_160_catchment           31.99       0.00       9.66       0.00      19.35       0.00      19.35        0.97     0.13   0.605
  c_145_catchment           31.99       0.00       9.33       0.00      20.42       0.00      20.42        0.20     0.06   0.638
  c_144_catchment           31.99       0.00       9.85       0.00      18.47       0.00      18.47        4.21     0.41   0.577
  c_142_catchment           31.99       0.00       9.89       0.00      18.31       0.00      18.31       14.07     1.29   0.573
  c_148_catchment           31.99       0.00       9.65       0.00      19.36       0.00      19.36        2.17     0.30   0.605
  c_149_catchment           31.99       0.00       9.89       0.00      18.30       0.00      18.30        3.35     0.31   0.572
  c_151_catchment           31.99       0.00       9.78       0.00      18.83       0.00      18.83        5.54     0.60   0.589
  c_161_catchment           31.99       0.00       9.95       0.00      18.00       0.00      18.00       12.24     1.03   0.563
  c_138_catchment           31.99       0.00       9.83       0.00      18.60       0.00      18.60        5.37     0.54   0.581
  c_139_catchment           31.99       0.00       9.62       0.00      19.49       0.00      19.49        0.90     0.13   0.609
  c_137_catchment           31.99       0.00       9.33       0.00      20.42       0.00      20.42        0.20     0.06   0.638
  c_122_catchment           29.27       0.00       8.66       0.00      18.37       0.00      18.37        9.59     1.66   0.628
  c_121_catchment           29.27       0.00       9.58       0.00      14.73       0.00      14.73        1.52     0.08   0.503
  c_120_catchment           29.27       0.00       9.03       0.00      17.32       0.00      17.32        0.85     0.08   0.592
  c_119_catchment           29.27       0.00       9.17       0.00      16.78       0.00      16.78       65.96     4.77   0.573
  c_100_catchment           29.27       0.00       8.77       0.00      18.12       0.00      18.12        1.21     0.18   0.619
  c_118_catchment           29.27       0.00       8.80       0.00      18.06       0.00      18.06        2.04     0.28   0.617
  c_116_catchment           29.27       0.00       8.98       0.00      17.52       0.00      17.52        2.26     0.23   0.599
  c_114_catchment           29.27       0.00       8.83       0.00      17.98       0.00      17.98        1.10     0.14   0.614
  c_112_catchment           29.27       0.00       8.41       0.00      18.82       0.00      18.82        5.36     1.36   0.643
  c_107_catchment           29.27       0.00       9.25       0.00      16.42       0.00      16.42       12.67     0.80   0.561
  c_107_2_catchment         29.27       0.00       9.06       0.00      17.24       0.00      17.24        1.55     0.14   0.589
  c_106_catchment           29.27       0.00       9.05       0.00      17.28       0.00      17.28        1.95     0.17   0.590
  c_99_catchment            29.27       0.00       9.19       0.00      16.67       0.00      16.67       17.28     1.20   0.569
  c_103_catchment           29.27       0.00       8.75       0.00      18.18       0.00      18.18        0.69     0.10   0.621
  c_98_catchment            29.27       0.00       9.07       0.00      17.19       0.00      17.19        4.50     0.39   0.587
  
  
  ******************
  Node Depth Summary
  ******************
  
  ---------------------------------------------------------------------------------
                                 Average  Maximum  Maximum  Time of Max    Reported
                                   Depth    Depth      HGL   Occurrence   Max Depth
  Node                 Type       Meters   Meters   Meters  days hr:min      Meters
  ---------------------------------------------------------------------------------
  Nod_100              JUNCTION     0.58     2.97    17.45     0  00:00        2.97
  Nod_890              JUNCTION     0.49     1.10    14.03     9  00:00        1.10
  Nod_891              JUNCTION     0.42     1.03    14.03     9  00:00        1.03
  Nod_892              JUNCTION     0.36     0.97    14.03     8  23:59        0.97
  Nod_A*HLCMRZ1135     JUNCTION     0.58     1.19    14.03     8  23:58        1.19
  Nod_103              JUNCTION     0.41     1.03    15.00     8  23:42        1.03
  Nod_104              JUNCTION     0.30     0.84    14.62     8  23:34        0.84
  Nod_105              JUNCTION     0.31     0.85    14.61     8  23:34        0.85
  Nod_106              JUNCTION     0.39     0.92    14.49     8  23:47        0.92
  Nod_107              JUNCTION     0.40     0.91    14.46     8  23:50        0.91
  Nod_108              JUNCTION     0.77     1.00    12.20     8  23:55        1.00
  Nod_109              JUNCTION     0.12     0.50    12.02     0  00:00        0.37
  Nod_110              JUNCTION     0.36     0.93    14.47     9  00:00        0.93
  Nod_111              JUNCTION     0.34     0.87    14.34     9  00:00        0.87
  Nod_112              JUNCTION     0.58     1.19    14.03     9  00:00        1.19
  Nod_113              JUNCTION     0.61     1.21    14.01     9  00:00        1.21
  Nod_114              JUNCTION     0.36     1.06    13.83     8  23:59        1.06
  Nod_115              JUNCTION     0.36     1.07    13.77     9  00:00        1.07
  Nod_116              JUNCTION     0.36     1.07    13.74     9  00:00        1.07
  Nod_117              JUNCTION     0.37     1.14    13.41     8  23:51        1.14
  Nod_118              JUNCTION     0.41     1.37    13.28     8  19:47        1.36
  Nod_119              JUNCTION     0.13     0.40    11.84     9  00:00        0.40
  Nod_120              JUNCTION     0.12     0.42    11.79     8  23:59        0.42
  Nod_121              JUNCTION     0.14     0.50    11.76     8  23:57        0.50
  Nod_122              JUNCTION     0.23     0.60    11.74     8  23:59        0.60
  Nod_123              JUNCTION     0.28     0.64    11.73     8  23:57        0.64
  Nod_124              JUNCTION     0.06     0.15    11.16     8  23:58        0.15
  Nod_126              JUNCTION     0.42     1.27    18.44     9  00:00        1.27
  Nod_127              JUNCTION     0.60     1.43    19.44     8  17:50        1.43
  Nod_128              JUNCTION     0.25     0.82    18.54     9  00:00        0.82
  Nod_129              JUNCTION     0.40     0.91    16.55     9  00:00        0.91
  Nod_130              JUNCTION     0.27     1.70    16.76     0  00:05        1.70
  Nod_131              JUNCTION     0.39     1.81    16.35     0  00:05        1.81
  Nod_132              JUNCTION     0.38     1.36    15.69     0  00:06        1.17
  Nod_133              JUNCTION     0.39     1.36    15.64     0  00:06        1.10
  Nod_134              JUNCTION     0.42     1.11    15.21     9  00:00        1.11
  Nod_135              JUNCTION     0.44     1.12    15.17     9  00:00        1.12
  Nod_136              JUNCTION     0.50     1.13    15.06     9  00:00        1.13
  Nod_222              JUNCTION     1.14     2.11    13.31     8  19:42        2.10
  Nod_233              JUNCTION     0.45     1.20    12.72     8  21:42        1.20
  Nod_244              JUNCTION     0.44     1.15    12.59     8  22:04        1.15
  Nod_266              JUNCTION     0.41     1.06    12.43     8  22:22        1.06
  Nod_277              JUNCTION     0.38     0.97    12.23     8  23:50        0.97
  J1                   JUNCTION     1.67     4.00    19.06     0  03:08        4.00
  J119                 JUNCTION   342.21  14475.33  14475.33     8  18:30    14475.33
  cso_Geldrop          OUTFALL      0.00     0.00     4.62     0  00:00        0.00
  cso_gb_136           OUTFALL      0.00     0.00     1.00     0  00:00        0.00
  cso_RZ               OUTFALL      0.00     0.00    16.07     0  00:00        0.00
  cso_ES_1             OUTFALL      0.00     0.00     0.00     0  00:00        0.00
  cso_AALST            OUTFALL      0.00     0.00     0.00     0  00:00        0.00
  out_ES               OUTFALL      0.00     0.00     0.00     0  00:00        0.00
  out_RZ               OUTFALL      0.00     0.00     0.00     0  00:00        0.00
  cso_gb127            OUTFALL      0.00     0.00     0.00     0  00:00        0.00
  cso_c_122            OUTFALL      0.00     0.00     0.00     0  00:00        0.00
  cso_c_119_1          OUTFALL      0.00     0.00     0.00     0  00:00        0.00
  cso_c_112            OUTFALL      0.00     0.00     0.00     0  00:00        0.00
  cso_c_99             OUTFALL      0.00     0.00     0.00     0  00:00        0.00
  cso_c_123            OUTFALL      0.00     0.00     0.00     0  00:00        0.00
  cso_c_119_2          OUTFALL      0.00     0.00     0.00     0  00:00        0.00
  cso_c_119_3          OUTFALL      0.00     0.00     0.00     0  00:00        0.00
  c_24_vr_storage_5    STORAGE      0.00     0.00     0.00     8  19:35        0.00
  c_23_vr_storage_7    STORAGE      0.00     0.00     0.00     8  19:35        0.00
  c_22_vr_storage_5    STORAGE      0.00     0.00     0.00     8  19:35        0.00
  c_21_vr_storage_7    STORAGE      0.00     0.00     0.00     8  19:35        0.00
  c_12_vr_storage_8    STORAGE      0.00     0.00     0.00     8  19:40        0.00
  c_20_vr_storage_13   STORAGE      0.00     0.00     0.00     8  19:41        0.00
  c_19_vr_storage_7    STORAGE      0.00     0.00     0.00     8  19:35        0.00
  c_10_vr_storage_10   STORAGE      0.00     0.00     0.00     8  19:40        0.00
  c_16_vr_storage_20   STORAGE      0.00     0.00     0.00     8  19:45        0.00
  c_15_vr_storage_24   STORAGE      0.00     0.00     0.00     8  19:49        0.00
  c_14_vr_storage_24   STORAGE      0.00     0.00     0.00     8  19:49        0.00
  pipe_ES              STORAGE      0.12     1.09     1.09     8  22:40        1.09
  pipe_Geldrop         STORAGE      0.08     2.86    17.92     8  19:45        2.86
  gb_136               STORAGE      0.02     0.90    17.35     8  20:05        0.90
  c_129_vr_storage_5   STORAGE      0.00     0.00     0.00     8  17:15        0.00
  c_128_vr_storage_5   STORAGE      0.00     0.00     0.00     8  17:15        0.00
  c_1285_vr_storage_5  STORAGE      0.00     0.00     0.00     8  17:15        0.00
  c_127_vr_storage_5   STORAGE      0.00     0.00     0.00     8  17:17        0.00
  c_126_vr_storage_5   STORAGE      0.00     0.00     0.00     8  17:15        0.00
  c_125_vr_storage_5   STORAGE      0.00     0.00     0.00     8  17:10        0.00
  c_124_storage        STORAGE      0.00     0.01    14.23     9  00:00        0.01
  c_136_vr_storage_5   STORAGE      0.00     0.00     0.00     8  18:20        0.00
  c_135_vr_storage_5   STORAGE      0.00     0.00     0.00     8  18:15        0.00
  c_131_vr_storage_5   STORAGE      0.00     0.00     0.00     8  18:16        0.00
  c_130_vr_storage_5   STORAGE      0.00     0.00     0.00     8  17:15        0.00
  c_134_vr_storage_5   STORAGE      0.00     0.00     0.00     8  18:15        0.00
  c_132_vr_storage_5   STORAGE      0.00     0.00     0.00     8  17:15        0.00
  Aalst_gemaal         STORAGE      0.14     2.29     2.29     9  00:00        2.29
  pre_ontvangstkelder  STORAGE      0.00     0.00   -10.50     0  00:00        0.00
  c_150_vr_storage_57  STORAGE      0.00     0.01     0.01     8  17:55        0.01
  c_123_vr_storage_40  STORAGE      0.00     0.00     0.00     8  17:40        0.00
  c_143_vr_storage_70  STORAGE      0.00     0.02     0.02     8  18:40        0.02
  c_147_vr_storage_4   STORAGE      0.00     0.00     0.00     8  17:05        0.00
  c_160_vr_storage_8   STORAGE      0.00     0.00     0.00     8  17:10        0.00
  c_145_vr_storage_4   STORAGE      0.00     0.00     0.00     8  17:05        0.00
  c_144_vr_storage_19  STORAGE      0.00     0.00     0.00     8  17:20        0.00
  c_142_vr_storage_35  STORAGE      0.00     0.00     0.00     8  17:35        0.00
  c_148_vr_storage_12  STORAGE      0.00     0.00     0.00     8  17:10        0.00
  c_149_vr_storage_17  STORAGE      0.00     0.00     0.00     8  17:15        0.00
  c_151_vr_storage_22  STORAGE      0.00     0.00     0.00     8  17:20        0.00
  c_161_vr_storage_32  STORAGE      0.00     0.00     0.00     8  17:30        0.00
  c_138_vr_storage_22  STORAGE      0.00     0.00     0.00     8  17:20        0.00
  c_139_vr_storage_8   STORAGE      0.00     0.00     0.00     8  17:10        0.00
  c_137_vr_storage_4   STORAGE      0.00     0.00     0.00     8  17:05        0.00
  c_122_vr_storage_29  STORAGE      0.00     0.00     0.00     8  17:20        0.00
  c_121_vr_storage_12  STORAGE      0.00     0.00     0.00     8  17:15        0.00
  c_120_vr_storage_8   STORAGE      0.00     0.00     0.00     8  17:05        0.00
  c_119_vr_storage_80  STORAGE      0.00     0.02     0.02     8  18:10        0.02
  c_100_vr_storage_10  STORAGE      0.00     0.00     0.00     8  17:05        0.00
  c_118_vr_storage_13  STORAGE      0.00     0.00     0.00     8  17:07        0.00
  c_116_vr_storage_15  STORAGE      0.00     0.00     0.00     8  17:15        0.00
  c_114_vr_storage_10  STORAGE      0.00     0.00     0.00     8  17:05        0.00
  c_112_vr_storage_21  STORAGE      0.00     0.00     0.00     8  17:10        0.00
  c_107_vr_storage_36  STORAGE      0.00     0.00     0.00     8  17:35        0.00
  c_107_2_vr_storage_12 STORAGE      0.00     0.00     0.00     8  17:05        0.00
  c_106_vr_storage_13  STORAGE      0.00     0.00     0.00     8  17:10        0.00
  c_99_vr_storage_41   STORAGE      0.00     0.00     0.00     8  17:34        0.00
  c_103_vr_storage_8   STORAGE      0.00     0.00     0.00     8  17:05        0.00
  c_98_vr_storage_20   STORAGE      0.00     0.00     0.00     8  17:15        0.00
  gb127                STORAGE      0.03     0.94     0.94     8  18:20        0.94
  c_123                STORAGE      0.22     9.77     9.77     8  21:55        9.77
  c_122                STORAGE      0.32     6.36     6.36     8  21:59        6.36
  c_112                STORAGE      0.07     1.72     1.72     8  19:30        1.72
  c_99                 STORAGE      0.07     3.64     3.64     8  20:45        3.64
  c_119_1              STORAGE      0.23     5.05     5.05     8  20:35        5.05
  c_119_2              STORAGE      0.16     7.02     7.02     8  21:30        7.02
  c_119_3              STORAGE      0.18     8.46     8.46     8  22:20        8.46
  
  
  *******************
  Node Inflow Summary
  *******************
  
  -------------------------------------------------------------------------------------------------
                                  Maximum  Maximum                  Lateral       Total        Flow
                                  Lateral    Total  Time of Max      Inflow      Inflow     Balance
                                   Inflow   Inflow   Occurrence      Volume      Volume       Error
  Node                 Type           CMS      CMS  days hr:min    10^6 ltr    10^6 ltr     Percent
  -------------------------------------------------------------------------------------------------
  Nod_100              JUNCTION     0.000   10.019     0  00:00           0          90       0.000
  Nod_890              JUNCTION     0.000    0.724     0  00:31           0         6.8      10.335
  Nod_891              JUNCTION     0.000    0.442     0  00:32           0         3.7      12.916
  Nod_892              JUNCTION     0.000    0.263     0  00:30           0        1.82      14.720
  Nod_A*HLCMRZ1135     JUNCTION     0.000    0.317     0  00:00           0       0.646      16.311
  Nod_103              JUNCTION     0.000    0.817     0  00:05           0          87       0.534
  Nod_104              JUNCTION     0.000    0.591     9  00:00           0        86.6       0.207
  Nod_105              JUNCTION     0.000    0.546     8  22:29           0        84.9       0.137
  Nod_106              JUNCTION     0.000    0.546     8  22:49           0        84.7       0.000
  Nod_107              JUNCTION     0.000    0.546     8  23:05           0        84.6       0.877
  Nod_108              JUNCTION     0.000    0.546     8  23:51           0        83.9       0.199
  Nod_109              JUNCTION     0.000    0.546     8  23:55           0        83.7      -0.111
  Nod_110              JUNCTION     0.000    2.500     9  00:00           0         464       0.105
  Nod_111              JUNCTION     0.000    2.500     9  00:00           0         463       0.182
  Nod_112              JUNCTION     0.000    2.500     9  00:00           0         466       0.163
  Nod_113              JUNCTION     0.000    2.500     8  23:59           0         460       0.169
  Nod_114              JUNCTION     0.000    2.500     8  23:58           0         459       0.140
  Nod_115              JUNCTION     0.000    2.500     8  23:59           0         459       0.031
  Nod_116              JUNCTION     0.000    2.500     8  23:59           0         459       0.136
  Nod_117              JUNCTION     0.000    2.500     8  23:57           0         458       0.276
  Nod_118              JUNCTION     0.000    4.359     8  19:13           0         523       0.171
  Nod_119              JUNCTION     0.000    0.981     0  00:01           0        83.8       0.062
  Nod_120              JUNCTION     0.000    0.691     0  00:02           0        83.8       0.092
  Nod_121              JUNCTION     0.000    0.546     8  23:59           0        83.7       0.167
  Nod_122              JUNCTION     0.000    0.546     8  23:37           0        83.5       0.162
  Nod_123              JUNCTION     0.000    3.046     8  23:57           0         537       0.041
  Nod_124              JUNCTION     0.000    3.046     8  23:58           0         537       0.003
  Nod_126              JUNCTION     0.000    2.100     9  00:00           0         409       0.335
  Nod_127              JUNCTION     0.000    2.100     0  00:05           0         410       0.244
  Nod_128              JUNCTION     0.000    2.115     8  17:58           0         409       0.036
  Nod_129              JUNCTION     0.000    3.395     0  00:04           0         408       0.216
  Nod_130              JUNCTION     0.000   10.805     0  00:00           0         468       0.023
  Nod_131              JUNCTION     0.000    9.744     0  00:01           0         467       0.120
  Nod_132              JUNCTION     0.000    7.133     0  00:05           0         467       0.107
  Nod_133              JUNCTION     0.000    5.318     0  00:05           0         466       0.095
  Nod_134              JUNCTION     0.000    4.519     0  00:06           0         466       0.100
  Nod_135              JUNCTION     0.000    3.567     0  00:07           0         465       0.074
  Nod_136              JUNCTION     0.000    3.269     0  00:09           0         465       0.311
  Nod_222              JUNCTION     0.000    5.851     8  19:19           0         522       0.142
  Nod_233              JUNCTION     0.000    2.717     8  19:42           0         455       0.073
  Nod_244              JUNCTION     0.000    2.516     8  20:46           0         455       0.047
  Nod_266              JUNCTION     0.000    2.508     8  21:04           0         455       0.058
  Nod_277              JUNCTION     0.000    2.502     8  21:44           0         454       0.071
  J1                   JUNCTION     0.000    0.800     8  17:10           0         116      -5.353
  J119                 JUNCTION     0.000    4.829     8  18:25           0        92.3      -8.770
  cso_Geldrop          OUTFALL      0.000    2.548     8  19:45           0        10.4       0.000
  cso_gb_136           OUTFALL      0.000    0.744     8  20:05           0        4.08       0.000
  cso_RZ               OUTFALL      0.000    0.000     0  00:00           0           0       0.000 ltr
  cso_ES_1             OUTFALL      0.000    0.000     0  00:00           0           0       0.000 ltr
  cso_AALST            OUTFALL      0.000    0.000     0  00:00           0           0       0.000 ltr
  out_ES               OUTFALL      0.000    3.888     0  08:10           0         651       0.000
  out_RZ               OUTFALL      0.000    3.046     8  23:58           0         537       0.000
  cso_gb127            OUTFALL      0.000    2.617     8  18:20           0        14.8       0.000
  cso_c_122            OUTFALL      0.000    0.000     0  00:00           0           0       0.000 ltr
  cso_c_119_1          OUTFALL      0.000    1.361     8  20:35           0        9.61       0.000
  cso_c_112            OUTFALL      0.000    0.323     8  19:30           0        1.32       0.000
  cso_c_99             OUTFALL      0.000    0.000     0  00:00           0           0       0.000 ltr
  cso_c_123            OUTFALL      0.000    0.000     0  00:00           0           0       0.000 ltr
  cso_c_119_2          OUTFALL      0.000    0.275     8  21:30           0       0.409       0.000
  cso_c_119_3          OUTFALL      0.000    0.000     0  00:00           0           0       0.000 ltr
  c_24_vr_storage_5    STORAGE     10.165   10.648     8  19:35         705         721      -0.000
  c_23_vr_storage_7    STORAGE      0.015    0.015     8  19:35        1.08        1.08      -0.000
  c_22_vr_storage_5    STORAGE      0.007    0.007     8  19:35       0.152       0.152       0.000
  c_21_vr_storage_7    STORAGE      0.016    0.016     8  19:35        1.05        1.05      -0.000
  c_12_vr_storage_8    STORAGE      0.019    0.019     8  19:35        1.59        1.59      -0.000
  c_20_vr_storage_13   STORAGE      0.045    0.045     8  19:35       0.951       0.951       0.000
  c_19_vr_storage_7    STORAGE      0.016    0.016     8  19:35       0.919       0.919      -0.000
  c_10_vr_storage_10   STORAGE      0.018    0.018     8  19:35       0.437       0.437       0.000
  c_16_vr_storage_20   STORAGE      0.118    0.118     8  19:35        2.51        2.51       0.000
  c_15_vr_storage_24   STORAGE      0.153    0.153     8  19:35         4.1         4.1       0.000
  c_14_vr_storage_24   STORAGE      0.159    0.159     8  19:35        3.38        3.38       0.000
  pipe_ES              STORAGE      0.000   10.632     8  19:35           0         720       0.001
  pipe_Geldrop         STORAGE      0.000    6.534     8  17:15           0         153       0.002
  gb_136               STORAGE      0.000    1.283     8  18:20           0          42       0.002
  c_129_vr_storage_5   STORAGE      0.163    0.163     8  17:15        1.06        1.06      -0.000
  c_128_vr_storage_5   STORAGE      5.933    6.580     8  17:15         114         153       0.000
  c_1285_vr_storage_5  STORAGE      0.168    0.168     8  17:15        1.57        1.57      -0.000
  c_127_vr_storage_5   STORAGE      5.178    6.159     8  17:15        35.1        58.4       0.000
  c_126_vr_storage_5   STORAGE      0.561    0.981     8  17:15        21.9        23.3      -0.000
  c_125_vr_storage_5   STORAGE      0.424    0.424     8  17:10        1.41        1.41      -0.001
  c_124_storage        STORAGE      0.224    0.224     8  17:10         3.5        5.03       0.011
  c_136_vr_storage_5   STORAGE      0.600    1.311     8  18:15        25.4          42       0.000
  c_135_vr_storage_5   STORAGE      0.285    0.285     8  18:15        6.41        6.41      -0.000
  c_131_vr_storage_5   STORAGE      0.240    0.300     8  18:15        5.97        7.42       0.000
  c_130_vr_storage_5   STORAGE      0.063    0.063     8  17:15        1.45        1.45      -0.000
  c_134_vr_storage_5   STORAGE      0.070    0.070     8  18:15        1.49        1.49      -0.000
  c_132_vr_storage_5   STORAGE      0.062    0.062     8  17:15        1.26        1.26      -0.000
  Aalst_gemaal         STORAGE      0.000   11.562     8  18:45           0         532      -0.411
  pre_ontvangstkelder  STORAGE      0.000    3.046     8  23:58           0         537      -0.000
  c_150_vr_storage_57  STORAGE      5.297    5.297     8  17:05        52.8        52.8       0.000
  c_123_vr_storage_40  STORAGE      2.030    2.030     8  17:05        26.3        26.3       0.000
  c_143_vr_storage_70  STORAGE      2.497    6.301     8  17:35         112         215       0.000
  c_147_vr_storage_4   STORAGE      0.130    0.130     8  17:05       0.843       0.843      -0.000
  c_160_vr_storage_8   STORAGE      0.188    0.188     8  17:05        40.6        40.6      -0.000
  c_145_vr_storage_4   STORAGE      0.059    0.059     8  17:05       0.725       0.725      -0.000
  c_144_vr_storage_19  STORAGE      0.409    0.409     8  17:05        5.51        5.51       0.000
  c_142_vr_storage_35  STORAGE      1.301    1.301     8  17:05        20.4        20.4       0.000
  c_148_vr_storage_12  STORAGE      0.297    0.297     8  17:05        2.87        2.87      -0.000
  c_149_vr_storage_17  STORAGE      0.306    0.306     8  17:05        3.35        3.35       0.000
  c_151_vr_storage_22  STORAGE      0.605    0.605     8  17:05        6.06        6.06       0.000
  c_161_vr_storage_32  STORAGE      1.026    1.026     8  17:05        12.2        12.2       0.000
  c_138_vr_storage_22  STORAGE      0.545    0.683     8  17:10        8.31        10.7       0.000
  c_139_vr_storage_8   STORAGE      0.131    0.131     8  17:05       0.897       0.897      -0.000
  c_137_vr_storage_4   STORAGE      0.060    0.060     8  17:05        1.53        1.53      -0.000
  c_122_vr_storage_29  STORAGE      1.667    1.667     8  17:00        13.4        13.4      -0.000
  c_121_vr_storage_12  STORAGE      0.086    0.149     8  17:05        7.72         9.5       0.000
  c_120_vr_storage_8   STORAGE      0.078    0.078     8  17:00        1.77        1.77      -0.000
  c_119_vr_storage_80  STORAGE      4.800    5.019     8  17:05          90        93.8       0.000
  c_100_vr_storage_10  STORAGE      0.176    0.176     8  17:00        1.73        1.73      -0.000
  c_118_vr_storage_13  STORAGE      0.284    0.284     8  17:00        2.04        2.04      -0.000
  c_116_vr_storage_15  STORAGE      0.229    0.357     8  17:05        3.31        4.96      -0.000
  c_114_vr_storage_10  STORAGE      0.145    0.145     8  17:00        1.65        1.65      -0.000
  c_112_vr_storage_21  STORAGE      1.366    1.366     8  17:00        6.76        6.76      -0.001
  c_107_vr_storage_36  STORAGE      0.931    1.197     8  17:10         110         123       0.000
  c_107_2_vr_storage_12 STORAGE      0.136    0.136     8  17:00        1.77        1.77      -0.000
  c_106_vr_storage_13  STORAGE      0.186    0.186     8  17:00        11.2        11.2      -0.000
  c_99_vr_storage_41   STORAGE      1.205    1.292     8  17:00        22.9          24       0.000
  c_103_vr_storage_8   STORAGE      0.105    0.105     8  17:00        1.17        1.17      -0.000
  c_98_vr_storage_20   STORAGE      0.388    0.388     8  17:00        6.63        6.63      -0.000
  gb127                STORAGE      0.000    5.682     8  17:15           0        58.4       0.002
  c_123                STORAGE      0.000    2.018     8  17:40           0        26.2       0.004
  c_122                STORAGE      0.000    1.666     8  17:25           0        13.4       0.005
  c_112                STORAGE      0.000    1.366     8  17:15           0        6.76       0.001
  c_99                 STORAGE      0.000    1.249     8  17:40           0        23.9      -0.002
  c_119_1              STORAGE      0.000   10.000     0  00:00           0        39.9       0.000
  c_119_2              STORAGE      0.000   10.000     0  00:00           0        28.8       0.001
  c_119_3              STORAGE      0.000   10.000     0  00:00           0        32.5       0.001
  
  
  **********************
  Node Surcharge Summary
  **********************
  
  Surcharging occurs when water rises above the top of the highest conduit.
  ---------------------------------------------------------------------
                                               Max. Height   Min. Depth
                                   Hours       Above Crown    Below Rim
  Node                 Type      Surcharged         Meters       Meters
  ---------------------------------------------------------------------
  Nod_100              JUNCTION        6.71          1.750        0.000
  J1                   JUNCTION      216.00          4.000        0.000
  J119                 JUNCTION      216.00      14475.326    99985523.674
  
  
  *********************
  Node Flooding Summary
  *********************
  
  Flooding refers to all water that overflows a node, whether it ponds or not.
  --------------------------------------------------------------------------
                                                             Total   Maximum
                                 Maximum   Time of Max       Flood    Ponded
                        Hours       Rate    Occurrence      Volume     Depth
  Node                 Flooded       CMS   days hr:min    10^6 ltr    Meters
  --------------------------------------------------------------------------
  Nod_100                 0.09     9.992      0  00:00       2.785     0.000
  J1                     26.71     0.662      8  17:10       0.770     0.000
  
  
  **********************
  Storage Volume Summary
  **********************
  
  ------------------------------------------------------------------------------------------------
                         Average    Avg   Evap  Exfil     Maximum    Max    Time of Max    Maximum
                          Volume   Pcnt   Pcnt   Pcnt      Volume   Pcnt     Occurrence    Outflow
  Storage Unit           1000 m³   Full   Loss   Loss     1000 m³   Full    days hr:min        CMS
  ------------------------------------------------------------------------------------------------
  c_24_vr_storage_5        0.169    0.0    0.0    0.0       1.646    0.0       8  19:35     10.632
  c_23_vr_storage_7        0.000    0.0    0.0    0.0       0.002    0.0       8  19:35      0.015
  c_22_vr_storage_5        0.000    0.0    0.0    0.0       0.001    0.0       8  19:35      0.007
  c_21_vr_storage_7        0.000    0.0    0.0    0.0       0.002    0.0       8  19:35      0.016
  c_12_vr_storage_8        0.001    0.0    0.0    0.0       0.009    0.0       8  19:40      0.019
  c_20_vr_storage_13       0.001    0.0    0.0    0.0       0.033    0.0       8  19:41      0.045
  c_19_vr_storage_7        0.000    0.0    0.0    0.0       0.002    0.0       8  19:35      0.016
  c_10_vr_storage_10       0.000    0.0    0.0    0.0       0.008    0.0       8  19:40      0.018
  c_16_vr_storage_20       0.003    0.0    0.0    0.0       0.121    0.0       8  19:45      0.118
  c_15_vr_storage_24       0.007    0.0    0.0    0.0       0.201    0.0       8  19:49      0.153
  c_14_vr_storage_24       0.006    0.0    0.0    0.0       0.209    0.0       8  19:49      0.159
  pipe_ES                  8.010    4.0    0.0    0.0      71.740   36.2       8  22:40      3.888
  pipe_Geldrop             0.760    1.5    0.0    0.0      28.567   57.1       8  19:45      3.348
  gb_136                   0.222    1.5    0.0    0.0       8.970   59.8       8  20:05      0.935
  c_129_vr_storage_5       0.000    0.0    0.0    0.0       0.020    0.0       8  17:15      0.163
  c_128_vr_storage_5       0.029    0.0    0.0    0.0       0.931    0.0       8  17:15      6.534
  c_1285_vr_storage_5      0.000    0.0    0.0    0.0       0.021    0.0       8  17:15      0.168
  c_127_vr_storage_5       0.006    0.0    0.0    0.0       0.832    0.0       8  17:17      5.682
  c_126_vr_storage_5       0.001    0.0    0.0    0.0       0.193    0.0       8  17:15      0.981
  c_125_vr_storage_5       0.000    0.0    0.0    0.0       0.053    0.0       8  17:10      0.420
  c_124_storage            2.067    0.0    0.0    0.0       5.023    0.1       9  00:00      0.000
  c_136_vr_storage_5       0.009    0.0    0.0    0.0       0.285    0.0       8  18:20      1.283
  c_135_vr_storage_5       0.001    0.0    0.0    0.0       0.037    0.0       8  18:15      0.285
  c_131_vr_storage_5       0.002    0.0    0.0    0.0       0.049    0.0       8  18:16      0.297
  c_130_vr_storage_5       0.000    0.0    0.0    0.0       0.008    0.0       8  17:15      0.062
  c_134_vr_storage_5       0.000    0.0    0.0    0.0       0.009    0.0       8  18:15      0.070
  c_132_vr_storage_5       0.000    0.0    0.0    0.0       0.008    0.0       8  17:15      0.062
  Aalst_gemaal             2.728    1.9    0.0    0.0     124.002   85.6       9  00:00      2.100
  pre_ontvangstkelder      0.000    0.0    0.0    0.0       0.000    0.0       0  00:00      3.046
  c_150_vr_storage_57      0.174    0.0    0.0    0.0      10.606    0.1       8  17:55      5.266
  c_123_vr_storage_40      0.071    0.0    0.0    0.0       3.515    0.0       8  17:40      2.018
  c_143_vr_storage_70      1.012    0.0    0.0    0.0      22.094    0.2       8  18:40      6.232
  c_147_vr_storage_4       0.000    0.0    0.0    0.0       0.016    0.0       8  17:05      0.129
  c_160_vr_storage_8       0.025    0.0    0.0    0.0       0.082    0.0       8  17:10      0.187
  c_145_vr_storage_4       0.000    0.0    0.0    0.0       0.008    0.0       8  17:05      0.059
  c_144_vr_storage_19      0.007    0.0    0.0    0.0       0.382    0.0       8  17:20      0.406
  c_142_vr_storage_35      0.048    0.0    0.0    0.0       2.089    0.0       8  17:35      1.294
  c_148_vr_storage_12      0.001    0.0    0.0    0.0       0.122    0.0       8  17:10      0.296
  c_149_vr_storage_17      0.003    0.0    0.0    0.0       0.210    0.0       8  17:15      0.304
  c_151_vr_storage_22      0.008    0.0    0.0    0.0       0.556    0.0       8  17:20      0.602
  c_161_vr_storage_32      0.025    0.0    0.0    0.0       1.457    0.0       8  17:30      1.020
  c_138_vr_storage_22      0.014    0.0    0.0    0.0       0.638    0.0       8  17:20      0.643
  c_139_vr_storage_8       0.000    0.0    0.0    0.0       0.053    0.0       8  17:10      0.130
  c_137_vr_storage_4       0.000    0.0    0.0    0.0       0.008    0.0       8  17:05      0.060
  c_122_vr_storage_29      0.025    0.0    0.0    0.0       2.029    0.0       8  17:20      1.666
  c_121_vr_storage_12      0.003    0.0    0.0    0.0       0.071    0.0       8  17:15      0.149
  c_120_vr_storage_8       0.001    0.0    0.0    0.0       0.032    0.0       8  17:05      0.078
  c_119_vr_storage_80      0.525    0.0    0.0    0.0      17.509    0.2       8  18:10      4.829
  c_100_vr_storage_10      0.001    0.0    0.0    0.0       0.069    0.0       8  17:05      0.176
  c_118_vr_storage_13      0.002    0.0    0.0    0.0       0.181    0.0       8  17:07      0.284
  c_116_vr_storage_15      0.005    0.0    0.0    0.0       0.256    0.0       8  17:15      0.341
  c_114_vr_storage_10      0.001    0.0    0.0    0.0       0.057    0.0       8  17:05      0.145
  c_112_vr_storage_21      0.007    0.0    0.0    0.0       1.149    0.0       8  17:10      1.366
  c_107_vr_storage_36      0.054    0.0    0.0    0.0       1.832    0.0       8  17:35      1.164
  c_107_2_vr_storage_12     0.001    0.0    0.0    0.0       0.054    0.0       8  17:05      0.136
  c_106_vr_storage_13      0.003    0.0    0.0    0.0       0.119    0.0       8  17:10      0.186
  c_99_vr_storage_41       0.065    0.0    0.0    0.0       2.436    0.0       8  17:34      1.249
  c_103_vr_storage_8       0.001    0.0    0.0    0.0       0.041    0.0       8  17:05      0.105
  c_98_vr_storage_20       0.008    0.0    0.0    0.0       0.361    0.0       8  17:15      0.388
  gb127                    0.261    1.4    0.0    0.0       9.381   50.4       8  18:20      2.933
  c_123                    0.221    0.7    0.0    0.0       9.773   32.6       8  21:55      0.284
  c_122                    0.323    3.2    0.0    0.0       6.357   63.6       8  21:59      0.031
  c_112                    0.065    3.3    0.0    0.0       1.719   86.0       8  19:30      0.384
  c_99                     0.065    0.3    0.0    0.0       3.635   18.2       8  20:45      0.556
  c_119_1                  0.227    2.3    0.0    0.0       5.050   50.5       8  20:35      1.604
  c_119_2                  0.161    1.6    0.0    0.0       7.017   70.2       8  21:30      0.615
  c_119_3                  0.184    0.9    0.0    0.0       8.464   42.3       8  22:20      0.389
  
  
  ***********************
  Outfall Loading Summary
  ***********************
  
  -----------------------------------------------------------
                         Flow       Avg       Max       Total
                         Freq      Flow      Flow      Volume
  Outfall Node           Pcnt       CMS       CMS    10^6 ltr
  -----------------------------------------------------------
  cso_Geldrop            1.45     0.917     2.548      10.354
  cso_gb_136             1.94     0.271     0.744       4.082
  cso_RZ                 0.00     0.000     0.000       0.000
  cso_ES_1               0.00     0.000     0.000       0.000
  cso_AALST              0.00     0.000     0.000       0.000
  out_ES                21.55     3.888     3.888     651.463
  out_RZ               100.00     0.691     3.046     537.105
  cso_gb127              1.72     1.104     2.617      14.782
  cso_c_122              0.00     0.000     0.000       0.000
  cso_c_119_1            2.00     0.617     1.361       9.605
  cso_c_112              1.14     0.149     0.323       1.321
  cso_c_99               0.00     0.000     0.000       0.000
  cso_c_123              0.00     0.000     0.000       0.000
  cso_c_119_2            0.44     0.120     0.275       0.409
  cso_c_119_3            0.00     0.000     0.000       0.000
  -----------------------------------------------------------
  System                 8.68     7.756    11.691    1229.122
  
  
  ********************
  Link Flow Summary
  ********************
  
  -----------------------------------------------------------------------------
                                 Maximum  Time of Max   Maximum    Max/    Max/
                                  |Flow|   Occurrence   |Veloc|    Full    Full
  Link                 Type          CMS  days hr:min     m/sec    Flow   Depth
  -----------------------------------------------------------------------------
  Con_158              CONDUIT     0.442     0  00:32      0.90    0.01    0.51
  Con_159              CONDUIT     0.263     0  00:30      0.40    0.04    0.48
  Con_160              CONDUIT     0.317     0  00:00      1.04    0.02    0.51
  Con_101              CONDUIT     0.817     0  00:05      0.91    2.54    0.84
  Con_102              CONDUIT     0.591     9  00:00      0.67    1.29    0.77
  Con_103              CONDUIT     0.546     8  22:49      0.76    0.72    0.73
  Con_104              CONDUIT     0.546     8  22:29      1.51    0.55    0.70
  Con_105              CONDUIT     0.546     8  23:05      0.82    1.17    0.75
  Con_106              CONDUIT     0.546     8  23:51      0.86    0.71    0.53
  Con_107              CONDUIT     0.546     8  23:55      0.76    0.13    0.20
  Con_108              CONDUIT     0.981     0  00:01      1.30    0.22    0.21
  Con_109              CONDUIT     2.500     9  00:00      1.09    0.42    0.43
  Con_110              CONDUIT     2.500     9  00:00      1.19    0.39    0.41
  Con_157              CONDUIT     0.724     0  00:31      0.91    0.02    0.55
  Con_111              CONDUIT     2.500     8  23:59      0.80    0.44    0.57
  Con_112              CONDUIT     2.500     8  23:58      1.00    0.34    0.46
  Con_113              CONDUIT     2.500     8  23:59      1.20    0.58    0.59
  Con_114              CONDUIT     2.500     8  23:59      1.19    0.63    0.59
  Con_115              CONDUIT     2.500     8  23:57      1.16    0.60    0.61
  Con_116              CONDUIT     2.605     8  20:04      1.19    0.63    0.69
  Con_117              CONDUIT     5.851     8  19:19      2.13    0.39    0.85
  Con_118              CONDUIT     0.691     0  00:02      1.08    0.18    0.23
  Con_119              CONDUIT     0.546     8  23:59      0.87    0.11    0.26
  Con_120              CONDUIT     0.546     8  23:37      0.71    0.11    0.30
  Con_121              CONDUIT     0.546     8  21:43      0.57    0.11    0.34
  Con_122              CONDUIT     3.046     8  23:58      3.43    0.65    0.22
  Con_123              CONDUIT     3.046     8  23:58      9.29    0.03    0.08
  Con_125              CONDUIT     2.100     9  00:00      1.01    0.91    0.73
  Con_126              CONDUIT     2.115     8  17:58      1.06    1.45    0.74
  Con_127              CONDUIT     2.100     9  00:00      1.72    0.33    0.70
  Con_128              CONDUIT     2.554     0  00:04      1.56    1.07    0.70
  Con_129              CONDUIT     9.744     0  00:01      4.13    1.27    0.88
  Con_130              CONDUIT     7.133     0  00:05      1.83    1.50    0.72
  Con_140              CONDUIT     5.318     0  00:05      2.11    1.00    0.65
  Con_141              CONDUIT     4.519     0  00:06      1.59    0.95    0.53
  Con_142              CONDUIT     3.567     0  00:07      1.58    0.75    0.53
  Con_143              CONDUIT     3.269     0  00:09      1.74    0.68    0.53
  Con_144              CONDUIT     2.500     9  00:00      1.00    0.67    0.45
  Con_152              CONDUIT     2.717     8  19:42      1.09    1.02    0.72
  Con_153              CONDUIT     2.516     8  20:46      1.08    0.88    0.65
  Con_154              CONDUIT     2.508     8  21:04      1.14    0.98    0.62
  Con_155              CONDUIT     2.502     8  21:44      1.10    0.77    0.56
  Con_156              CONDUIT     2.500     8  23:57      1.38    0.68    0.45
  eeneind_out          CONDUIT     0.045     9  00:00      1.80    0.49    0.51
  P_c_24_d_5           PUMP       10.632     8  19:35              1.06
  P_c_23_d_7           PUMP        0.015     8  19:35              0.00
  P_c_22_d_5           PUMP        0.007     8  19:35              0.00
  P_c_21_d_7           PUMP        0.016     8  19:35              0.00
  P_c_12_d_8           PUMP        0.019     8  19:40              0.00
  P_c_20_d_13          PUMP        0.045     8  19:45              0.00
  P_c_19_d_7           PUMP        0.016     8  19:35              0.00
  P_c_10_d_10          PUMP        0.018     8  19:40              0.00
  P_c_16_d_20          PUMP        0.118     8  19:50              0.01
  P_c_15_d_24          PUMP        0.153     8  19:55              0.02
  P_c_14_d_24          PUMP        0.159     8  19:55              0.02
  P_c_129_d_5          PUMP        0.163     8  17:15              0.02
  P_c_128_d_5          PUMP        6.534     8  17:15              0.65
  P_c_1285_d_5         PUMP        0.168     8  17:15              0.02
  P_c_127_d_5          PUMP        5.682     8  17:15              0.57
  P_c_126_d_5          PUMP        0.981     8  17:15              0.10
  P_c_125_d_5          PUMP        0.420     8  17:10              0.04
  P_c_136_d_5          PUMP        1.283     8  18:20              0.13
  P_c_135_d_5          PUMP        0.285     8  18:15              0.03
  P_c_131_d_5          PUMP        0.297     8  18:15              0.03
  P_c_130_d_5          PUMP        0.062     8  17:15              0.01
  P_c_134_d_5          PUMP        0.070     8  18:15              0.01
  P_c_132_d_5          PUMP        0.062     8  17:15              0.01
  Con_1119.1           PUMP        0.191     8  17:10              1.00
  P_riool_zuid_out     PUMP        3.046     8  23:58              0.64
  P_eindhoven_out      PUMP        3.888     0  08:10              1.00
  P_c_150_d_57         PUMP        5.266     8  17:55              0.53
  P_c_123_d_40         PUMP        2.018     8  17:40              0.20
  P_c_143_d_70         PUMP        6.232     8  18:45              0.62
  P_c_147_d_4          PUMP        0.129     8  17:05              0.01
  P_c_160_d_8          PUMP        0.187     8  17:10              0.02
  P_c_145_d_4          PUMP        0.059     8  17:05              0.01
  P_c_144_d_19         PUMP        0.406     8  17:20              0.04
  P_c_142_d_35         PUMP        1.294     8  17:35              0.13
  P_c_148_d_12         PUMP        0.296     8  17:10              0.03
  P_c_149_d_17         PUMP        0.304     8  17:15              0.03
  P_c_151_d_22         PUMP        0.602     8  17:20              0.06
  P_c_161_d_32         PUMP        1.020     8  17:30              0.10
  P_c_138_d_22         PUMP        0.643     8  17:30              0.06
  P_c_139_d_8          PUMP        0.130     8  17:10              0.01
  P_c_137_d_4          PUMP        0.060     8  17:05              0.01
  P_c_122_d_29         PUMP        1.666     8  17:25              0.17
  P_c_121_d_12         PUMP        0.149     8  17:15              0.01
  P_c_120_d_8          PUMP        0.078     8  17:05              0.01
  P_c_119_d_80         PUMP        4.829     8  18:25              0.48
  P_c_100_d_10         PUMP        0.176     8  17:05              0.02
  P_c_118_d_13         PUMP        0.284     8  17:10              0.03
  P_c_116_d_15         PUMP        0.341     8  17:20              0.03
  P_c_114_d_10         PUMP        0.145     8  17:05              0.01
  P_c_112_d_21         PUMP        1.366     8  17:15              0.14
  P_c_107_d_36         PUMP        1.164     8  17:40              0.12
  P_c_107_2_d_12       PUMP        0.136     8  17:05              0.01
  P_c_106_d_13         PUMP        0.186     8  17:10              0.02
  P_c_99_d_41          PUMP        1.249     8  17:40              0.12
  P_c_103_d_8          PUMP        0.105     8  17:05              0.01
  P_c_98_d_20          PUMP        0.388     8  17:15              0.04
  P_aalst_1            PUMP        0.560     0  00:05              1.00
  P_aalst_2            PUMP        0.560     0  00:05              1.00
  P_aalst_3            PUMP        0.490     0  00:05              1.00
  P_aalst_4            PUMP        0.490     0  00:00              1.00
  P_pipe_Geldrop       PUMP        0.800     8  17:10              1.00
  P_gb127              PUMP        0.316     2  10:00              1.00
  P_c_99               PUMP        0.556     8  17:30              1.00
  P_c_112              PUMP        0.061     2  09:20              1.00
  P_c_119_1            PUMP        0.243     0  00:00              1.00
  P_c_122              PUMP        0.031     2  09:30              1.00
  P_c_123              PUMP        0.284     2  10:30              1.00
  P_c_119_2            PUMP        0.340     0  00:00              1.00
  P_c_119_3            PUMP        0.389     0  00:00              1.00
  P_c_119_fr_040       PUMP       10.000     0  00:00              1.00
  P_c_119_fr_028       PUMP       10.000     0  00:00              1.00
  P_c_119_fr_032       PUMP       10.000     0  00:00              1.00
  P_geldrop_split_1    PUMP       10.000     0  00:00              1.00
  P_geldrop_split_2    PUMP       10.000     0  00:00              1.00
  weir_gb_136          WEIR        0.744     8  20:05                      0.03
  Con_A*HLCMRZ1135.1   WEIR        0.000     0  00:00                      0.00
  weir_ES              WEIR        0.000     0  00:00                      0.00
  Aalst_weir           WEIR        0.000     0  00:00                      0.00
  weir_gb127           WEIR        2.617     8  18:20                      0.08
  weir_pipe_Geldrop    WEIR        2.548     8  19:45                      0.08
  weir_c_123           WEIR        0.000     0  00:00                      0.00
  weir_c_99            WEIR        0.000     0  00:00                      0.00
  weir_c_112           WEIR        0.323     8  19:30                      0.02
  weir_c_119_1         WEIR        1.361     8  20:35                      0.05
  weir_c_122           WEIR        0.000     0  00:00                      0.00
  weir_c_119_2         WEIR        0.275     8  21:30                      0.02
  weir_c_119_3         WEIR        0.000     0  00:00                      0.00
  
  
  ***************************
  Flow Classification Summary
  ***************************
  
  -------------------------------------------------------------------------------------
                      Adjusted    ---------- Fraction of Time in Flow Class ---------- 
                       /Actual         Up    Down  Sub   Sup   Up    Down  Norm  Inlet 
  Conduit               Length    Dry  Dry   Dry   Crit  Crit  Crit  Crit  Ltd   Ctrl  
  -------------------------------------------------------------------------------------
  Con_158                 1.00   0.00  0.00  0.00  1.00  0.00  0.00  0.00  0.00  0.00
  Con_159                 1.00   0.00  0.00  0.00  1.00  0.00  0.00  0.00  0.00  0.00
  Con_160                 1.00   0.00  0.00  0.00  1.00  0.00  0.00  0.00  0.00  0.00
  Con_101                 1.00   0.00  0.00  0.00  0.82  0.00  0.00  0.18  0.00  0.00
  Con_102                 1.00   0.00  0.00  0.00  1.00  0.00  0.00  0.00  0.00  0.00
  Con_103                 1.00   0.00  0.00  0.00  1.00  0.00  0.00  0.00  0.41  0.00
  Con_104                 1.00   0.00  0.00  0.00  1.00  0.00  0.00  0.00  0.00  0.00
  Con_105                 1.00   0.00  0.00  0.00  1.00  0.00  0.00  0.00  0.00  0.00
  Con_106                 1.00   0.00  0.00  0.00  0.00  0.00  0.00  1.00  0.00  0.00
  Con_107                 1.00   0.00  0.00  0.00  1.00  0.00  0.00  0.00  0.06  0.00
  Con_108                 1.00   0.00  0.00  0.00  1.00  0.00  0.00  0.00  0.88  0.00
  Con_109                 1.00   0.00  0.00  0.00  1.00  0.00  0.00  0.00  0.00  0.00
  Con_110                 1.00   0.00  0.00  0.00  1.00  0.00  0.00  0.00  0.00  0.00
  Con_157                 1.00   0.00  0.00  0.00  1.00  0.00  0.00  0.00  0.00  0.00
  Con_111                 1.00   0.00  0.00  0.00  1.00  0.00  0.00  0.00  0.00  0.00
  Con_112                 1.00   0.00  0.00  0.00  1.00  0.00  0.00  0.00  0.92  0.00
  Con_113                 1.00   0.00  0.00  0.00  1.00  0.00  0.00  0.00  0.00  0.00
  Con_114                 1.00   0.00  0.00  0.00  1.00  0.00  0.00  0.00  0.00  0.00
  Con_115                 1.00   0.00  0.00  0.00  1.00  0.00  0.00  0.00  0.75  0.00
  Con_116                 1.00   0.00  0.00  0.00  1.00  0.00  0.00  0.00  0.38  0.00
  Con_117                 1.00   0.00  0.00  0.00  1.00  0.00  0.00  0.00  0.14  0.00
  Con_118                 1.00   0.00  0.00  0.00  1.00  0.00  0.00  0.00  0.00  0.00
  Con_119                 1.00   0.00  0.00  0.00  1.00  0.00  0.00  0.00  0.88  0.00
  Con_120                 1.00   0.00  0.00  0.00  1.00  0.00  0.00  0.00  0.29  0.00
  Con_121                 1.00   0.00  0.00  0.00  1.00  0.00  0.00  0.00  0.00  0.00
  Con_122                 1.00   0.00  0.00  0.00  0.00  1.00  0.00  0.00  0.00  0.00
  Con_123                 1.00   0.00  0.00  0.00  0.00  0.00  0.00  1.00  0.00  0.00
  Con_125                 1.00   0.00  0.00  0.00  1.00  0.00  0.00  0.00  0.77  0.00
  Con_126                 1.00   0.00  0.00  0.00  1.00  0.00  0.00  0.00  0.00  0.00
  Con_127                 1.00   0.00  0.00  0.00  1.00  0.00  0.00  0.00  0.93  0.00
  Con_128                 1.00   0.00  0.00  0.00  0.00  0.00  0.00  1.00  0.00  0.00
  Con_129                 1.00   0.00  0.00  0.00  1.00  0.00  0.00  0.00  0.93  0.00
  Con_130                 1.00   0.00  0.00  0.00  1.00  0.00  0.00  0.00  0.02  0.00
  Con_140                 1.00   0.00  0.00  0.00  1.00  0.00  0.00  0.00  0.00  0.00
  Con_141                 1.00   0.00  0.00  0.00  1.00  0.00  0.00  0.00  0.23  0.00
  Con_142                 1.00   0.00  0.00  0.00  1.00  0.00  0.00  0.00  0.00  0.00
  Con_143                 1.00   0.00  0.00  0.00  1.00  0.00  0.00  0.00  0.00  0.00
  Con_144                 1.00   0.00  0.00  0.00  0.72  0.00  0.00  0.28  0.00  0.00
  Con_152                 1.00   0.00  0.00  0.00  1.00  0.00  0.00  0.00  0.18  0.00
  Con_153                 1.00   0.00  0.00  0.00  1.00  0.00  0.00  0.00  0.06  0.00
  Con_154                 1.00   0.00  0.00  0.00  1.00  0.00  0.00  0.00  0.00  0.00
  Con_155                 1.00   0.00  0.00  0.00  1.00  0.00  0.00  0.00  0.00  0.00
  Con_156                 1.00   0.00  0.00  0.00  1.00  0.00  0.00  0.00  0.00  0.00
  eeneind_out             1.00   0.00  0.01  0.00  0.94  0.04  0.00  0.00  0.92  0.00
  
  
  *************************
  Conduit Surcharge Summary
  *************************
  
  ----------------------------------------------------------------------------
                                                           Hours        Hours 
                         --------- Hours Full --------   Above Full   Capacity
  Conduit                Both Ends  Upstream  Dnstream   Normal Flow   Limited
  ----------------------------------------------------------------------------
  Con_101                     0.01      6.71      0.01     10.59         0.01
  Con_102                     0.01      0.01      0.01      7.27         0.01
  Con_105                     0.01      0.01      0.01      5.89         0.01
  Con_117                     0.01      0.01     12.09      0.01         0.01
  Con_126                     0.01      0.01      0.01     16.31         0.01
  Con_128                     0.01      0.01      0.01      0.03         0.01
  Con_129                     0.01      0.01      0.01      0.02         0.01
  Con_130                     0.01      0.01      0.01      0.06         0.01
  Con_152                     0.01      0.01      0.01      0.12         0.01
  eeneind_out                 0.01      0.01    158.69      0.01         0.01
  
  
  ***************
  Pumping Summary
  ***************
  
  ---------------------------------------------------------------------------------------------------------
                                                  Min       Avg       Max     Total     Power    % Time Off
                        Percent   Number of      Flow      Flow      Flow    Volume     Usage    Pump Curve
  Pump                 Utilized   Start-Ups       CMS       CMS       CMS  10^6 ltr     Kw-hr    Low   High
  ---------------------------------------------------------------------------------------------------------
  P_c_24_d_5             100.00           1      0.00      0.93     10.63   720.324    441.90    0.0  100.0
  P_c_23_d_7             100.00           1      0.00      0.00      0.01     1.078      0.00    0.0  100.0
  P_c_22_d_5              14.12           3      0.00      0.00      0.01     0.152      0.00    0.0  100.0
  P_c_21_d_7             100.00           1      0.00      0.00      0.02     1.050      0.00    0.0  100.0
  P_c_12_d_8             100.00           1      0.00      0.00      0.02     1.588      0.00    0.0   99.9
  P_c_20_d_13             16.82           2      0.00      0.01      0.04     0.941      0.00    0.0   91.9
  P_c_19_d_7             100.00           1      0.00      0.00      0.02     0.918      0.00    0.0  100.0
  P_c_10_d_10             17.82           2      0.00      0.00      0.02     0.433      0.00    0.0   89.7
  P_c_16_d_20             16.81           2      0.00      0.02      0.12     2.474      0.01    0.0   89.1
  P_c_15_d_24            100.00           1      0.00      0.01      0.15     4.036      0.01    0.0   98.2
  P_c_14_d_24             16.75           2      0.00      0.03      0.16     3.322      0.01    0.0   89.0
  P_c_129_d_5             11.47           5      0.00      0.01      0.16     1.056      0.00    0.0  100.0
  P_c_128_d_5            100.00           1      0.00      0.20      6.53   152.899   6576.48    0.0  100.0
  P_c_1285_d_5           100.00           1      0.00      0.00      0.17     1.570      0.00    0.0  100.0
  P_c_127_d_5            100.00           1      0.00      0.08      5.68    58.400     60.73    0.0    4.0
  P_c_126_d_5            100.00           1      0.00      0.03      0.98    23.345      0.00    0.0   91.5
  P_c_125_d_5            100.00           1      0.00      0.00      0.42     1.414      0.00    0.0  100.0
  P_c_136_d_5            100.00           1      0.00      0.05      1.28    41.993   1909.89    0.0  100.0
  P_c_135_d_5            100.00           1      0.00      0.01      0.28     6.408      0.00    0.0  100.0
  P_c_131_d_5            100.00           1      0.00      0.01      0.30     7.416      0.00    0.0  100.0
  P_c_130_d_5            100.00           1      0.00      0.00      0.06     1.447      0.00    0.0  100.0
  P_c_134_d_5            100.00           1      0.00      0.00      0.07     1.487      0.00    0.0  100.0
  P_c_132_d_5            100.00           1      0.00      0.00      0.06     1.261      0.00    0.0  100.0
  Con_1119.1             100.00           1      0.00      0.04      0.19    29.259    107.29    0.0    3.2
  P_riool_zuid_out       100.00           1      0.00      0.69      3.05   537.108  15355.98    0.0    0.0
  P_eindhoven_out         21.55          32      0.00      3.89      3.89   651.466    344.87    0.0  100.0
  P_c_150_d_57           100.00           1      0.00      0.07      5.27    52.510    158.15    0.0   99.3
  P_c_123_d_40           100.00           1      0.00      0.03      2.02    26.190    241.58    0.0    3.2
  P_c_143_d_70           100.00           1      0.00      0.27      6.23   210.704    459.15    0.0   51.0
  P_c_147_d_4              8.60           3      0.00      0.01      0.13     0.843      0.03    0.0  100.0
  P_c_160_d_8            100.00           1      0.00      0.05      0.19    40.582      0.16    0.0  100.0
  P_c_145_d_4            100.00           1      0.00      0.00      0.06     0.725      0.01    0.0  100.0
  P_c_144_d_19           100.00           1      0.00      0.01      0.41     5.498      0.16    0.0  100.0
  P_c_142_d_35           100.00           1      0.00      0.03      1.29    20.241      0.53    0.0  100.0
  P_c_148_d_12           100.00           1      0.00      0.00      0.30     2.868      0.08    0.0  100.0
  P_c_149_d_17            10.56           3      0.00      0.04      0.30     3.343      0.12    0.0  100.0
  P_c_151_d_22           100.00           1      0.00      0.01      0.60     6.055      0.20    0.0  100.0
  P_c_161_d_32            10.80           3      0.00      0.14      1.02    12.137      0.44    0.0  100.0
  P_c_138_d_22           100.00           1      0.00      0.01      0.64    10.718      0.25    0.0  100.0
  P_c_139_d_8              8.66           3      0.00      0.01      0.13     0.897      0.00    0.0  100.0
  P_c_137_d_4            100.00           1      0.00      0.00      0.06     1.534      0.00    0.0  100.0
  P_c_122_d_29           100.00           1      0.00      0.02      1.67    13.352     74.28    0.0   16.6
  P_c_121_d_12           100.00           1      0.00      0.01      0.15     9.490     11.14    0.0   99.3
  P_c_120_d_8            100.00           1      0.00      0.00      0.08     1.774      0.00    0.0   99.9
  P_c_119_d_80           100.00           1      0.00      0.12      4.83    92.323 1408031.27    0.0   94.5
  P_c_100_d_10           100.00           1      0.00      0.00      0.18     1.727      0.03    0.0  100.0
  P_c_118_d_13             7.13           3      0.00      0.04      0.28     2.041      0.06    0.0  100.0
  P_c_116_d_15           100.00           1      0.00      0.01      0.34     4.959     11.31    0.0   99.3
  P_c_114_d_10           100.00           1      0.00      0.00      0.14     1.649      0.00    0.0  100.0
  P_c_112_d_21           100.00           1      0.00      0.01      1.37     6.756     16.02    0.0    6.6
  P_c_107_d_36           100.00           1      0.00      0.16      1.16   122.706    102.24    0.0   99.3
  P_c_107_2_d_12         100.00           1      0.00      0.00      0.14     1.769      0.00    0.0  100.0
  P_c_106_d_13           100.00           1      0.00      0.01      0.19    11.244      0.01    0.0  100.0
  P_c_99_d_41            100.00           1      0.00      0.03      1.25    23.884     76.93    0.0    3.0
  P_c_103_d_8            100.00           1      0.00      0.00      0.10     1.173      0.00    0.0  100.0
  P_c_98_d_20            100.00           1      0.00      0.01      0.39     6.634     16.10    0.0   99.3
  P_aalst_1               11.42          96      0.00      0.55      0.56    49.030   2430.90    0.0   94.3
  P_aalst_2                8.45          23      0.00      0.56      0.56    36.474   1796.42    0.0   97.9
  P_aalst_3                8.10          17      0.00      0.49      0.49    30.649   1507.50    0.0   98.8
  P_aalst_4              100.00           1      0.00      0.38      0.49   294.017  14792.18    0.0   99.3
  P_pipe_Geldrop         100.00           1      0.00      0.15      0.80   115.719    502.70    0.0    3.2
  P_gb127                100.00           1      0.00      0.05      0.32    36.734     17.43    0.0    4.0
  P_c_99                 100.00           1      0.00      0.03      0.56    23.885     50.78    0.0    3.0
  P_c_112                100.00           1      0.00      0.01      0.06     4.398      4.89    0.0    6.6
  P_c_119_1              100.00           3      0.00      0.03      0.24    25.310     73.98    0.0  100.0
  P_c_122                100.00           1      0.00      0.01      0.03     7.105     14.35    0.0   16.6
  P_c_123                100.00           1      0.00      0.02      0.28    17.250    114.30    0.0    3.2
  P_c_119_2              100.00           2      0.00      0.03      0.34    22.136     89.49    0.0  100.0
  P_c_119_3              100.00           2      0.00      0.03      0.39    24.875    120.19    0.0  100.0
  P_c_119_fr_040         100.00           1      0.00      0.05     10.00    39.870 562841.97    0.0    5.5
  P_c_119_fr_028         100.00           1      0.00      0.04     10.00    28.809 394016.58    0.0    5.5
  P_c_119_fr_032         100.00           1      0.00      0.04     10.00    32.496 450272.76    0.0    5.5
  P_geldrop_split_1      100.00           1      0.00      0.08     10.00    60.739    316.20    0.0   57.7
  P_geldrop_split_2      100.00           1      0.00      0.08     10.00    60.739    316.48    0.0   11.0
  

  Analysis begun on:  Tue Apr 22 11:36:49 2025
  Analysis ended on:  Tue Apr 22 11:37:36 2025
  Total elapsed time: 00:00:47