
  EPA STORM WATER MANAGEMENT MODEL - VERSION 5.2 (Build 5.2.4)
  PYSWMM TOOLKIT API - VERSION v1.0 (2023-11-27)
  ------------------------------------------------------------

  WARNING 02: maximum depth increased for Node gb127
  
  ****************
  Analysis Options
  ****************
  Flow Units ............... CMS
  Process Models:
    Rainfall/Runoff ........ YES
    RDII ................... NO
    Snowmelt ............... NO
    Groundwater ............ NO
    Flow Routing ........... YES
    Ponding Allowed ........ NO
    Water Quality .......... NO
  Infiltration Method ...... HORTON
  Flow Routing Method ...... DYNWAVE
  Surcharge Method ......... EXTRAN
  Starting Date ............ 06/01/2024 00:00:00
  Ending Date .............. 08/01/2024 00:00:00
  Antecedent Dry Days ...... 0.0
  Report Time Step ......... 00:05:00
  Wet Time Step ............ 00:01:00
  Dry Time Step ............ 00:10:00
  Routing Time Step ........ 2.00 sec
  Variable Time Step ....... YES
  Maximum Trials ........... 12
  Number of Threads ........ 2
  Head Tolerance ........... 0.000200 m
  
  
  *********************
  Rainfall File Summary
  *********************
  Station    First        Last         Recording   Periods    Periods    Periods
  ID         Date         Date         Frequency  w/Precip    Missing    Malfunc.
  -------------------------------------------------------------------------------
  ES         01/01/2024   12/31/2024       5 min    105217          0          0

  GE         01/01/2024   12/31/2024       5 min    105217          0          0

  RZ1        01/01/2024   12/31/2024       5 min    105217          0          0

  RZ2        01/01/2024   12/31/2024       5 min    105217          0          0

  
  
  **************************        Volume         Depth
  Runoff Quantity Continuity     hectare-m            mm
  **************************     ---------       -------
  Total Precipitation ......       466.488       110.576
  Evaporation Loss .........       237.869        56.384
  Infiltration Loss ........         0.000         0.000
  Surface Runoff ...........       228.629        54.194
  Final Storage ............         0.000         0.000
  Continuity Error (%) .....        -0.002
  
  
  **************************        Volume        Volume
  Flow Routing Continuity        hectare-m      10^6 ltr
  **************************     ---------     ---------
  Dry Weather Inflow .......       433.448      4334.525
  Wet Weather Inflow .......       228.629      2286.314
  Groundwater Inflow .......         0.000         0.000
  RDII Inflow ..............         0.000         0.000
  External Inflow ..........       190.720      1907.217
  External Outflow .........       826.490      8264.989
  Flooding Loss ............        24.017       240.174
  Evaporation Loss .........         0.022         0.216
  Exfiltration Loss ........         0.000         0.000
  Initial Stored Volume ....         0.804         8.043
  Final Stored Volume ......         6.028        60.276
  Continuity Error (%) .....        -0.346
  
  
  *************************
  Highest Continuity Errors
  *************************
  Node J119 (-2.38%)
  Node Nod_A*HLCMRZ1135 (1.19%)
  Node J1 (-1.03%)
  
  
  ***************************
  Time-Step Critical Elements
  ***************************
  None
  
  
  ********************************
  Highest Flow Instability Indexes
  ********************************
  Link Con_123 (3)
  Link Con_122 (3)
  Link Con_121 (3)
  Link Con_156 (2)
  Link Con_117 (2)
  
  
  *********************************
  Most Frequent Nonconverging Nodes
  *********************************
  Node cso_Geldrop (0.83%)
  Node cso_gb_136 (0.83%)
  Node cso_RZ (0.83%)
  Node cso_ES_1 (0.83%)
  Node cso_AALST (0.83%)
  
  
  *************************
  Routing Time Step Summary
  *************************
  Minimum Time Step           :     0.37 sec
  Average Time Step           :     2.00 sec
  Maximum Time Step           :     2.00 sec
  % of Time in Steady State   :     0.00
  Average Iterations per Step :     2.13
  % of Steps Not Converging   :     0.83
  Time Step Frequencies       :
      2.000 -  1.516 sec      :    99.99 %
      1.516 -  1.149 sec      :     0.00 %
      1.149 -  0.871 sec      :     0.00 %
      0.871 -  0.660 sec      :     0.00 %
      0.660 -  0.500 sec      :     0.00 %
  
  
  ***************************
  Subcatchment Runoff Summary
  ***************************
  
  ------------------------------------------------------------------------------------------------------------------------------
                            Total      Total      Total      Total     Imperv       Perv      Total       Total     Peak  Runoff
                           Precip      Runon       Evap      Infil     Runoff     Runoff     Runoff      Runoff   Runoff   Coeff
  Subcatchment                 mm         mm         mm         mm         mm         mm         mm    10^6 ltr      CMS
  ------------------------------------------------------------------------------------------------------------------------------
  c_24_catchment           106.45       0.00      58.84       0.00      47.61       0.00      47.61      913.46    18.30   0.447
  c_23_catchment           106.45       0.00      60.00       0.00      46.45       0.00      46.45        1.39     0.03   0.436
  c_22_catchment           106.45       0.00      60.00       0.00      46.45       0.00      46.45        0.74     0.01   0.436
  c_21_catchment           106.45       0.00      60.00       0.00      46.45       0.00      46.45        1.49     0.03   0.436
  c_12_catchment           106.45       0.00      60.00       0.00      46.45       0.00      46.45        1.72     0.03   0.436
  c_20_catchment           106.45       0.00      60.00       0.00      46.45       0.00      46.45        4.65     0.08   0.436
  c_19_catchment           106.45       0.00      60.00       0.00      46.45       0.00      46.45        1.58     0.03   0.436
  c_10_catchment           106.45       0.00      65.59       0.00      40.86       0.00      40.86        2.53     0.03   0.384
  c_16_catchment           106.45       0.00      60.00       0.00      46.45       0.00      46.45       12.26     0.22   0.436
  c_15_catchment           106.45       0.00      60.00       0.00      46.45       0.00      46.45       15.75     0.28   0.436
  c_14_catchment           106.45       0.00      60.00       0.00      46.45       0.00      46.45       16.54     0.30   0.436
  c_129_catchment          121.97       0.00      48.56       0.00      73.42       0.00      73.42        3.67     0.16   0.602
  c_128_catchment          121.97       0.00      50.37       0.00      71.61       0.00      71.61      182.67     5.85   0.587
  c_1285_catchment         121.97       0.00      49.15       0.00      72.83       0.00      72.83        4.22     0.17   0.597
  c_127_catchment          121.97       0.00      47.79       0.00      74.19       0.00      74.19      100.08     5.17   0.608
  c_126_catchment          121.97       0.00      48.36       0.00      73.62       0.00      73.62       11.63     0.54   0.604
  c_125_catchment          121.97       0.00      45.20       0.00      76.79       0.00      76.79        4.07     0.42   0.630
  c_124_catchment          121.97       0.00      42.87       0.00      79.18       0.00      79.18        0.79     0.22   0.649
  c_136_catchment          121.97       0.00      55.84       0.00      66.13       0.00      66.13       33.40     0.58   0.542
  c_135_catchment          121.97       0.00      54.55       0.00      67.42       0.00      67.42       14.83     0.28   0.553
  c_131_catchment          121.97       0.00      56.26       0.00      65.71       0.00      65.71       14.13     0.24   0.539
  c_130_catchment          121.97       0.00      52.51       0.00      69.46       0.00      69.46        2.71     0.06   0.570
  c_134_catchment          121.97       0.00      54.32       0.00      67.65       0.00      67.65        3.59     0.07   0.555
  c_132_catchment          121.97       0.00      52.51       0.00      69.46       0.00      69.46        2.71     0.06   0.570
  c_150_catchment          117.79       0.00      53.08       0.00      64.71       0.00      64.71      132.66     5.51   0.549
  c_123_catchment          117.79       0.00      54.48       0.00      63.31       0.00      63.31       64.26     2.30   0.537
  c_143_catchment          117.79       0.00      60.85       0.00      56.94       0.00      56.94      175.37     3.25   0.483
  c_147_catchment          117.79       0.00      52.24       0.00      65.56       0.00      65.56        2.82     0.13   0.557
  c_160_catchment          117.79       0.00      52.96       0.00      64.83       0.00      64.83        3.24     0.14   0.550
  c_145_catchment          117.79       0.00      49.20       0.00      68.61       0.00      68.61        0.69     0.06   0.582
  c_144_catchment          117.79       0.00      55.09       0.00      62.70       0.00      62.70       14.30     0.48   0.532
  c_142_catchment          117.79       0.00      55.43       0.00      62.37       0.00      62.37       47.90     1.54   0.529
  c_148_catchment          117.79       0.00      52.94       0.00      64.85       0.00      64.85        7.26     0.31   0.551
  c_149_catchment          117.79       0.00      55.46       0.00      62.33       0.00      62.33       11.41     0.37   0.529
  c_151_catchment          117.79       0.00      54.30       0.00      63.49       0.00      63.49       18.67     0.68   0.539
  c_161_catchment          117.79       0.00      56.06       0.00      61.73       0.00      61.73       41.98     1.27   0.524
  c_138_catchment          117.79       0.00      54.82       0.00      62.97       0.00      62.97       18.20     0.63   0.535
  c_139_catchment          117.79       0.00      52.56       0.00      65.24       0.00      65.24        3.00     0.13   0.554
  c_137_catchment          117.79       0.00      49.20       0.00      68.61       0.00      68.61        0.69     0.06   0.582
  c_122_catchment          105.31       0.00      49.49       0.00      55.83       0.00      55.83       29.14     1.66   0.530
  c_121_catchment          105.31       0.00      57.93       0.00      47.38       0.00      47.38        4.88     0.10   0.450
  c_120_catchment          105.31       0.00      52.65       0.00      52.66       0.00      52.66        2.58     0.10   0.500
  c_119_catchment          105.31       0.00      53.98       0.00      51.34       0.00      51.34      201.76     6.54   0.487
  c_100_catchment          105.31       0.00      50.31       0.00      55.01       0.00      55.01        3.69     0.18   0.522
  c_118_catchment          105.31       0.00      50.49       0.00      54.82       0.00      54.82        6.20     0.30   0.521
  c_116_catchment          105.31       0.00      52.10       0.00      53.22       0.00      53.22        6.86     0.28   0.505
  c_114_catchment          105.31       0.00      50.77       0.00      54.55       0.00      54.55        3.33     0.16   0.518
  c_112_catchment          105.31       0.00      47.86       0.00      57.47       0.00      57.47       16.38     1.36   0.546
  c_107_catchment          105.31       0.00      54.79       0.00      50.53       0.00      50.53       39.01     1.14   0.480
  c_107_2_catchment        105.31       0.00      52.86       0.00      52.45       0.00      52.45        4.72     0.18   0.498
  c_106_catchment          105.31       0.00      52.76       0.00      52.56       0.00      52.56        5.94     0.22   0.499
  c_99_catchment           105.31       0.00      54.24       0.00      51.08       0.00      51.08       52.97     1.66   0.485
  c_103_catchment          105.31       0.00      50.12       0.00      55.20       0.00      55.20        2.10     0.11   0.524
  c_98_catchment           105.31       0.00      52.99       0.00      52.32       0.00      52.32       13.71     0.50   0.497
  
  
  ******************
  Node Depth Summary
  ******************
  
  ---------------------------------------------------------------------------------
                                 Average  Maximum  Maximum  Time of Max    Reported
                                   Depth    Depth      HGL   Occurrence   Max Depth
  Node                 Type       Meters   Meters   Meters  days hr:min      Meters
  ---------------------------------------------------------------------------------
  Nod_100              JUNCTION     0.62     2.97    17.45     0  00:00        2.97
  Nod_890              JUNCTION     0.57     3.00    15.93    38  19:41        2.95
  Nod_891              JUNCTION     0.50     2.87    15.87    38  19:40        2.87
  Nod_892              JUNCTION     0.44     2.86    15.92    38  19:44        2.83
  Nod_A*HLCMRZ1135     JUNCTION     0.66     3.09    15.93    38  19:44        3.06
  Nod_103              JUNCTION     0.44     2.00    15.97    38  19:16        2.00
  Nod_104              JUNCTION     0.34     2.00    15.78    38  19:14        1.89
  Nod_105              JUNCTION     0.35     2.00    15.76    38  19:14        1.91
  Nod_106              JUNCTION     0.44     2.00    15.57    38  19:11        2.00
  Nod_107              JUNCTION     0.44     2.00    15.55    38  19:11        2.00
  Nod_108              JUNCTION     1.05     5.16    16.36    38  18:44        4.64
  Nod_109              JUNCTION     0.58     4.33    15.85    38  19:51        4.32
  Nod_110              JUNCTION     0.42     2.79    16.33    38  19:41        2.43
  Nod_111              JUNCTION     0.40     2.81    16.28    38  19:41        2.49
  Nod_112              JUNCTION     0.66     3.49    16.33    38  19:27        3.06
  Nod_113              JUNCTION     0.69     3.57    16.37    38  19:27        3.10
  Nod_114              JUNCTION     0.45     3.40    16.17    38  19:12        3.13
  Nod_115              JUNCTION     0.46     3.50    16.20    38  19:12        3.20
  Nod_116              JUNCTION     0.46     3.63    16.30    38  19:12        3.23
  Nod_117              JUNCTION     0.49     5.48    17.75    38  18:43        3.62
  Nod_118              JUNCTION     0.58     3.99    15.90    38  19:41        3.97
  Nod_119              JUNCTION     0.63     4.41    15.85    38  19:52        4.40
  Nod_120              JUNCTION     0.66     4.48    15.85    38  19:52        4.48
  Nod_121              JUNCTION     0.74     4.59    15.85    38  19:52        4.59
  Nod_122              JUNCTION     0.84     4.71    15.85    38  19:52        4.71
  Nod_123              JUNCTION     0.89     4.77    15.86    38  19:51        4.76
  Nod_124              JUNCTION     0.86     5.98    16.99    42  00:03        4.84
  Nod_126              JUNCTION     0.44     1.27    18.44    52  06:42        1.27
  Nod_127              JUNCTION     0.62     1.43    19.44    38  17:50        1.43
  Nod_128              JUNCTION     0.26     0.82    18.54    52  06:43        0.82
  Nod_129              JUNCTION     0.41     0.95    16.59    38  20:08        0.95
  Nod_130              JUNCTION     0.28     1.70    16.76     0  00:05        1.70
  Nod_131              JUNCTION     0.41     1.81    16.35     0  00:05        1.81
  Nod_132              JUNCTION     0.41     1.83    16.16    38  19:54        1.83
  Nod_133              JUNCTION     0.42     1.87    16.15    38  19:55        1.87
  Nod_134              JUNCTION     0.46     2.01    16.11    38  19:53        2.01
  Nod_135              JUNCTION     0.47     2.05    16.10    38  19:54        2.05
  Nod_136              JUNCTION     0.53     2.16    16.09    38  19:52        2.14
  Nod_222              JUNCTION     1.31     4.70    15.90    38  19:43        4.68
  Nod_233              JUNCTION     0.74     4.35    15.87    38  19:52        4.34
  Nod_244              JUNCTION     0.78     4.42    15.86    38  19:51        4.42
  Nod_266              JUNCTION     0.79     4.49    15.86    38  19:52        4.48
  Nod_277              JUNCTION     0.84     4.60    15.86    38  19:52        4.59
  J1                   JUNCTION     1.88     4.00    19.06     0  03:08        4.00
  J119                 JUNCTION   231.44  21068.98  21068.98    52  05:50    21065.80
  cso_Geldrop          OUTFALL      0.00     0.00     4.62     0  00:00        0.00
  cso_gb_136           OUTFALL      0.00     0.00     1.00     0  00:00        0.00
  cso_RZ               OUTFALL      0.00     0.00    16.07     0  00:00        0.00
  cso_ES_1             OUTFALL      0.00     0.00     0.00     0  00:00        0.00
  cso_AALST            OUTFALL      0.00     0.00     0.00     0  00:00        0.00
  out_ES               OUTFALL      0.00     0.00     0.00     0  00:00        0.00
  out_RZ               OUTFALL      0.00     0.00     0.00     0  00:00        0.00
  cso_gb127            OUTFALL      0.00     0.00     0.00     0  00:00        0.00
  cso_c_122            OUTFALL      0.00     0.00     0.00     0  00:00        0.00
  cso_c_119_1          OUTFALL      0.00     0.00     0.00     0  00:00        0.00
  cso_c_112            OUTFALL      0.00     0.00     0.00     0  00:00        0.00
  cso_c_99             OUTFALL      0.00     0.00     0.00     0  00:00        0.00
  cso_c_123            OUTFALL      0.00     0.00     0.00     0  00:00        0.00
  cso_c_119_2          OUTFALL      0.00     0.00     0.00     0  00:00        0.00
  cso_c_119_3          OUTFALL      0.00     0.00     0.00     0  00:00        0.00
  c_24_vr_storage_5    STORAGE      0.00     0.00     0.00    52  04:46        0.00
  c_23_vr_storage_7    STORAGE      0.00     0.00     0.00    52  04:45        0.00
  c_22_vr_storage_5    STORAGE      0.00     0.00     0.00    52  04:45        0.00
  c_21_vr_storage_7    STORAGE      0.00     0.00     0.00    52  04:45        0.00
  c_12_vr_storage_8    STORAGE      0.00     0.00     0.00    52  04:49        0.00
  c_20_vr_storage_13   STORAGE      0.00     0.00     0.00    52  04:50        0.00
  c_19_vr_storage_7    STORAGE      0.00     0.00     0.00    52  04:45        0.00
  c_10_vr_storage_10   STORAGE      0.00     0.00     0.00    52  04:50        0.00
  c_16_vr_storage_20   STORAGE      0.00     0.00     0.00    52  04:55        0.00
  c_15_vr_storage_24   STORAGE      0.00     0.00     0.00    52  04:59        0.00
  c_14_vr_storage_24   STORAGE      0.00     0.00     0.00    52  04:59        0.00
  pipe_ES              STORAGE      0.17     2.56     2.56    52  16:35        2.56
  pipe_Geldrop         STORAGE      0.09     2.86    17.92    38  19:45        2.86
  gb_136               STORAGE      0.03     0.90    17.35    38  20:05        0.90
  c_129_vr_storage_5   STORAGE      0.00     0.00     0.00    38  17:15        0.00
  c_128_vr_storage_5   STORAGE      0.00     0.00     0.00    38  17:15        0.00
  c_1285_vr_storage_5  STORAGE      0.00     0.00     0.00    38  17:15        0.00
  c_127_vr_storage_5   STORAGE      0.00     0.00     0.00    38  17:17        0.00
  c_126_vr_storage_5   STORAGE      0.00     0.00     0.00    38  17:15        0.00
  c_125_vr_storage_5   STORAGE      0.00     0.00     0.00    38  17:10        0.00
  c_124_storage        STORAGE      0.02     0.04    14.26    53  15:00        0.04
  c_136_vr_storage_5   STORAGE      0.00     0.00     0.00    38  18:20        0.00
  c_135_vr_storage_5   STORAGE      0.00     0.00     0.00    41  09:55        0.00
  c_131_vr_storage_5   STORAGE      0.00     0.00     0.00    38  18:16        0.00
  c_130_vr_storage_5   STORAGE      0.00     0.00     0.00    38  17:15        0.00
  c_134_vr_storage_5   STORAGE      0.00     0.00     0.00    38  18:15        0.00
  c_132_vr_storage_5   STORAGE      0.00     0.00     0.00    38  17:15        0.00
  Aalst_gemaal         STORAGE      0.18     2.49     2.49    52  17:40        2.49
  pre_ontvangstkelder  STORAGE     17.10    26.35    15.85    38  19:52       26.35
  c_150_vr_storage_57  STORAGE      0.00     0.01     0.01    52  05:05        0.01
  c_123_vr_storage_40  STORAGE      0.00     0.00     0.00    52  04:56        0.00
  c_143_vr_storage_70  STORAGE      0.00     0.03     0.03    52  05:45        0.03
  c_147_vr_storage_4   STORAGE      0.00     0.00     0.00    52  04:35        0.00
  c_160_vr_storage_8   STORAGE      0.00     0.00     0.00    38  17:10        0.00
  c_145_vr_storage_4   STORAGE      0.00     0.00     0.00    38  17:05        0.00
  c_144_vr_storage_19  STORAGE      0.00     0.00     0.00    52  04:45        0.00
  c_142_vr_storage_35  STORAGE      0.00     0.00     0.00    52  04:55        0.00
  c_148_vr_storage_12  STORAGE      0.00     0.00     0.00    52  04:38        0.00
  c_149_vr_storage_17  STORAGE      0.00     0.00     0.00    52  04:45        0.00
  c_151_vr_storage_22  STORAGE      0.00     0.00     0.00    52  04:45        0.00
  c_161_vr_storage_32  STORAGE      0.00     0.00     0.00    52  04:55        0.00
  c_138_vr_storage_22  STORAGE      0.00     0.00     0.00    52  04:45        0.00
  c_139_vr_storage_8   STORAGE      0.00     0.00     0.00    52  04:37        0.00
  c_137_vr_storage_4   STORAGE      0.00     0.00     0.00    38  17:05        0.00
  c_122_vr_storage_29  STORAGE      0.00     0.00     0.00    52  04:35        0.00
  c_121_vr_storage_12  STORAGE      0.00     0.00     0.00    52  04:40        0.00
  c_120_vr_storage_8   STORAGE      0.00     0.00     0.00    52  04:34        0.00
  c_119_vr_storage_80  STORAGE      0.00     0.02     0.02    52  05:25        0.02
  c_100_vr_storage_10  STORAGE      0.00     0.00     0.00    52  04:30        0.00
  c_118_vr_storage_13  STORAGE      0.00     0.00     0.00    52  04:31        0.00
  c_116_vr_storage_15  STORAGE      0.00     0.00     0.00    52  04:37        0.00
  c_114_vr_storage_10  STORAGE      0.00     0.00     0.00    52  04:30        0.00
  c_112_vr_storage_21  STORAGE      0.00     0.00     0.00    52  04:25        0.00
  c_107_vr_storage_36  STORAGE      0.00     0.00     0.00    52  04:55        0.00
  c_107_2_vr_storage_12 STORAGE      0.00     0.00     0.00    52  04:35        0.00
  c_106_vr_storage_13  STORAGE      0.00     0.00     0.00    52  04:35        0.00
  c_99_vr_storage_41   STORAGE      0.00     0.00     0.00    52  04:55        0.00
  c_103_vr_storage_8   STORAGE      0.00     0.00     0.00    52  04:29        0.00
  c_98_vr_storage_20   STORAGE      0.00     0.00     0.00    52  04:39        0.00
  gb127                STORAGE      0.02     0.94     0.94    38  18:20        0.94
  c_123                STORAGE      0.17     9.77     9.77    38  21:55        9.77
  c_122                STORAGE      0.54     6.36     6.36    38  21:59        6.36
  c_112                STORAGE      0.03     1.73     1.73    52  04:55        1.73
  c_99                 STORAGE      0.02     3.95     3.95    52  06:40        3.95
  c_119_1              STORAGE      0.12     5.07     5.07    52  06:10        5.07
  c_119_2              STORAGE      0.08     7.02     7.02    38  21:30        7.02
  c_119_3              STORAGE      0.10     8.46     8.46    38  22:20        8.46
  
  
  *******************
  Node Inflow Summary
  *******************
  
  -------------------------------------------------------------------------------------------------
                                  Maximum  Maximum                  Lateral       Total        Flow
                                  Lateral    Total  Time of Max      Inflow      Inflow     Balance
                                   Inflow   Inflow   Occurrence      Volume      Volume       Error
  Node                 Type           CMS      CMS  days hr:min    10^6 ltr    10^6 ltr     Percent
  -------------------------------------------------------------------------------------------------
  Nod_100              JUNCTION     0.000   10.019     0  00:00           0         647       0.000
  Nod_890              JUNCTION     0.000    2.155    38  20:01           0         205       0.093
  Nod_891              JUNCTION     0.000    2.224    38  20:01           0         184       0.048
  Nod_892              JUNCTION     0.000    1.030    38  19:22           0        11.5       0.245
  Nod_A*HLCMRZ1135     JUNCTION     0.000    1.019    38  19:22           0        3.14       1.200
  Nod_103              JUNCTION     0.000    0.817     0  00:05           0         644       0.055
  Nod_104              JUNCTION     0.000    0.668    42  00:05           0         652       0.008
  Nod_105              JUNCTION     0.000    0.660    39  00:05           0         627      -0.009
  Nod_106              JUNCTION     0.000    0.699    39  00:06           0         628       0.000
  Nod_107              JUNCTION     0.000    0.961    38  19:55           0         664      -0.259
  Nod_108              JUNCTION     0.000    0.916    39  00:07           0         631       0.247
  Nod_109              JUNCTION     0.000    3.537    45  00:03           0         633       0.033
  Nod_110              JUNCTION     0.000    3.636    53  00:06           0    3.33e+03       0.028
  Nod_111              JUNCTION     0.000    4.064    39  00:09           0    3.33e+03       0.011
  Nod_112              JUNCTION     0.000    4.064    42  00:09           0    3.36e+03       0.016
  Nod_113              JUNCTION     0.000    3.834    42  00:09           0    3.17e+03       0.005
  Nod_114              JUNCTION     0.000    3.812    42  00:09           0    3.17e+03      -0.002
  Nod_115              JUNCTION     0.000    3.812    42  00:09           0    3.17e+03       0.000
  Nod_116              JUNCTION     0.000    3.811    42  00:09           0    3.17e+03       0.000
  Nod_117              JUNCTION     0.000    3.811    42  00:09           0    3.17e+03       0.016
  Nod_118              JUNCTION     0.000    4.399    52  06:30           0    3.84e+03       0.019
  Nod_119              JUNCTION     0.000    3.455    45  00:03           0         636       0.027
  Nod_120              JUNCTION     0.000    3.406    45  00:03           0         639       0.039
  Nod_121              JUNCTION     0.000    3.333    45  00:03           0         645       0.055
  Nod_122              JUNCTION     0.000    3.288    45  00:03           0         659       0.042
  Nod_123              JUNCTION     0.000    6.861    39  00:03           0    3.78e+03       0.001
  Nod_124              JUNCTION     0.000    6.861    39  00:03           0    4.22e+03       0.069
  Nod_126              JUNCTION     0.000    2.105    38  20:02           0    2.91e+03      -0.018
  Nod_127              JUNCTION     0.000    2.100     0  00:05           0     2.9e+03       0.006
  Nod_128              JUNCTION     0.000    2.116    52  05:12           0     2.9e+03      -0.017
  Nod_129              JUNCTION     0.000    3.395     0  00:04           0    2.91e+03      -0.014
  Nod_130              JUNCTION     0.000   10.805     0  00:00           0    3.33e+03       0.001
  Nod_131              JUNCTION     0.000    9.744     0  00:01           0    3.33e+03       0.002
  Nod_132              JUNCTION     0.000    7.133     0  00:05           0    3.33e+03       0.001
  Nod_133              JUNCTION     0.000    5.318     0  00:05           0    3.33e+03       0.001
  Nod_134              JUNCTION     0.000    4.519     0  00:06           0    3.33e+03       0.002
  Nod_135              JUNCTION     0.000    3.567     0  00:07           0    3.33e+03       0.002
  Nod_136              JUNCTION     0.000    3.300    53  00:07           0    3.33e+03       0.029
  Nod_222              JUNCTION     0.000    5.870    52  06:40           0    3.84e+03      -0.013
  Nod_233              JUNCTION     0.000    3.810    42  00:09           0    3.17e+03      -0.007
  Nod_244              JUNCTION     0.000    3.809    42  00:09           0    3.17e+03       0.003
  Nod_266              JUNCTION     0.000    3.809    42  00:09           0    3.17e+03       0.006
  Nod_277              JUNCTION     0.000    3.808    42  00:09           0    3.17e+03       0.010
  J1                   JUNCTION     0.000    0.800    13  21:55           0         846      -1.021
  J119                 JUNCTION     0.000    7.014    52  05:45           0         378      -2.326
  cso_Geldrop          OUTFALL      0.000    2.548    38  19:45           0        15.6       0.000
  cso_gb_136           OUTFALL      0.000    0.744    38  20:05           0        6.69       0.000
  cso_RZ               OUTFALL      0.000    0.000     0  00:00           0           0       0.000 ltr
  cso_ES_1             OUTFALL      0.000    1.777    52  16:35           0        9.68       0.000
  cso_AALST            OUTFALL      0.000    1.526    52  17:40           0        10.7       0.000
  out_ES               OUTFALL      0.000    3.888    38  20:10           0    4.45e+03       0.000
  out_RZ               OUTFALL      0.000    4.881    39  00:00           0    3.71e+03       0.000
  cso_gb127            OUTFALL      0.000    2.617    38  18:20           0        33.5       0.000
  cso_c_122            OUTFALL      0.000    0.000     0  00:00           0           0       0.000 ltr
  cso_c_119_1          OUTFALL      0.000    2.113    52  06:10           0        22.3       0.000
  cso_c_112            OUTFALL      0.000    0.725    52  04:55           0        2.56       0.000
  cso_c_99             OUTFALL      0.000    0.000     0  00:00           0           0       0.000 ltr
  cso_c_123            OUTFALL      0.000    0.000     0  00:00           0           0       0.000 ltr
  cso_c_119_2          OUTFALL      0.000    0.275    38  21:30           0       0.409       0.000
  cso_c_119_3          OUTFALL      0.000    0.000     0  00:00           0           0       0.000 ltr
  c_24_vr_storage_5    STORAGE     18.744   19.565    52  04:45    4.38e+03    4.47e+03      -0.000
  c_23_vr_storage_7    STORAGE      0.026    0.026    52  04:45        6.77        6.77      -0.000
  c_22_vr_storage_5    STORAGE      0.013    0.013    52  04:45       0.743       0.743      -0.000
  c_21_vr_storage_7    STORAGE      0.027    0.027    52  04:45        6.54        6.54      -0.000
  c_12_vr_storage_8    STORAGE      0.032    0.032    52  04:45        10.1        10.1      -0.000
  c_20_vr_storage_13   STORAGE      0.084    0.084    52  04:45        4.65        4.65      -0.000
  c_19_vr_storage_7    STORAGE      0.029    0.029    52  04:45        5.61        5.61      -0.000
  c_10_vr_storage_10   STORAGE      0.029    0.029    52  04:50        2.53        2.53      -0.000
  c_16_vr_storage_20   STORAGE      0.221    0.221    52  04:45        12.3        12.3      -0.000
  c_15_vr_storage_24   STORAGE      0.285    0.285    52  04:45        21.7        21.7      -0.000
  c_14_vr_storage_24   STORAGE      0.298    0.298    52  04:45        16.5        16.5      -0.000
  pipe_ES              STORAGE      0.000   19.447    52  04:45           0    4.47e+03       0.000
  pipe_Geldrop         STORAGE      0.000    6.534    38  17:15           0         862      -0.000
  gb_136               STORAGE      0.000    1.283    38  18:20           0         227      -0.000
  c_129_vr_storage_5   STORAGE      0.163    0.163    38  17:15        3.67        3.67      -0.000
  c_128_vr_storage_5   STORAGE      5.933    6.580    38  17:15         599         862       0.000
  c_1285_vr_storage_5  STORAGE      0.168    0.168    38  17:15        6.65        6.65      -0.000
  c_127_vr_storage_5   STORAGE      5.178    6.159    38  17:15         142         285       0.000
  c_126_vr_storage_5   STORAGE      0.561    0.981    38  17:15         138         143      -0.000
  c_125_vr_storage_5   STORAGE      0.424    0.424    38  17:10         5.7         5.7      -0.000
  c_124_storage        STORAGE      0.224    0.224    38  17:10          23        48.6       0.010
  c_136_vr_storage_5   STORAGE      0.600    1.311    38  18:15         146         227       0.000
  c_135_vr_storage_5   STORAGE      0.285    0.285    38  18:15        31.1        31.1      -0.000
  c_131_vr_storage_5   STORAGE      0.240    0.300    38  18:15        29.6          37      -0.000
  c_130_vr_storage_5   STORAGE      0.063    0.063    38  17:15         7.4         7.4      -0.000
  c_134_vr_storage_5   STORAGE      0.070    0.070    38  18:15        7.06        7.06      -0.000
  c_132_vr_storage_5   STORAGE      0.062    0.062    38  17:15        6.13        6.13      -0.000
  Aalst_gemaal         STORAGE      0.000   14.303    52  05:55           0     2.9e+03      -0.575
  pre_ontvangstkelder  STORAGE      0.000    6.860    39  00:03           0    4.21e+03      -0.003
  c_150_vr_storage_57  STORAGE      5.523    5.523    52  04:35         222         222      -0.000
  c_123_vr_storage_40  STORAGE      2.308    2.308    52  04:35         114         114      -0.000
  c_143_vr_storage_70  STORAGE      3.301    8.381    52  04:55         615    1.15e+03       0.000
  c_147_vr_storage_4   STORAGE      0.130    0.130    38  17:05        2.82        2.82      -0.000
  c_160_vr_storage_8   STORAGE      0.188    0.188    38  17:05         272         272      -0.000
  c_145_vr_storage_4   STORAGE      0.059    0.059    38  17:05        4.22        4.22      -0.000
  c_144_vr_storage_19  STORAGE      0.480    0.480    52  04:35        23.1        23.1      -0.000
  c_142_vr_storage_35  STORAGE      1.550    1.550    52  04:35        90.6        90.6      -0.000
  c_148_vr_storage_12  STORAGE      0.306    0.306    52  04:35          12          12      -0.000
  c_149_vr_storage_17  STORAGE      0.367    0.367    52  04:35        11.4        11.4      -0.000
  c_151_vr_storage_22  STORAGE      0.683    0.683    52  04:35        22.3        22.3      -0.000
  c_161_vr_storage_32  STORAGE      1.268    1.268    52  04:40          42          42      -0.000
  c_138_vr_storage_22  STORAGE      0.630    0.799    52  04:35        38.1        50.8      -0.000
  c_139_vr_storage_8   STORAGE      0.131    0.131    52  04:35           3           3      -0.000
  c_137_vr_storage_4   STORAGE      0.060    0.060    38  17:05         9.7         9.7      -0.000
  c_122_vr_storage_29  STORAGE      1.667    1.667    38  17:00        54.7        54.7      -0.000
  c_121_vr_storage_12  STORAGE      0.105    0.204    52  04:35        46.9        55.8       0.000
  c_120_vr_storage_8   STORAGE      0.099    0.099    52  04:30        8.85        8.85      -0.000
  c_119_vr_storage_80  STORAGE      6.556    7.039    52  04:30         365         378      -0.000
  c_100_vr_storage_10  STORAGE      0.185    0.185    52  04:25        7.16        7.16      -0.000
  c_118_vr_storage_13  STORAGE      0.304    0.304    52  04:30         6.2         6.2      -0.000
  c_116_vr_storage_15  STORAGE      0.282    0.439    52  04:30          14          21      -0.000
  c_114_vr_storage_10  STORAGE      0.159    0.159    52  04:30        7.07        7.07      -0.000
  c_112_vr_storage_21  STORAGE      1.366    1.366    38  17:00        25.8        25.8      -0.000
  c_107_vr_storage_36  STORAGE      1.264    1.646    52  04:35         697         773       0.000
  c_107_2_vr_storage_12 STORAGE      0.176    0.176    52  04:30         6.2         6.2      -0.000
  c_106_vr_storage_13  STORAGE      0.235    0.235    52  04:30        68.9        68.9      -0.000
  c_99_vr_storage_41   STORAGE      1.665    1.773    52  04:30        90.8        96.1      -0.000
  c_103_vr_storage_8   STORAGE      0.108    0.108    52  04:25        5.36        5.36      -0.000
  c_98_vr_storage_20   STORAGE      0.504    0.504    52  04:30        28.1        28.1      -0.000
  gb127                STORAGE      0.000    5.682    38  17:15           0         285      -0.001
  c_123                STORAGE      0.000    2.307    52  05:10           0         114      -0.001
  c_122                STORAGE      0.000    1.666    38  17:25           0        54.7      -0.001
  c_112                STORAGE      0.000    1.366    38  17:15           0        25.8      -0.001
  c_99                 STORAGE      0.000    1.772    52  05:05           0        96.1      -0.001
  c_119_1              STORAGE      0.000   10.000     0  00:00           0         154      -0.000
  c_119_2              STORAGE      0.000   10.000     0  00:00           0         109      -0.001
  c_119_3              STORAGE      0.000   10.000     0  00:00           0         124      -0.001
  
  
  **********************
  Node Surcharge Summary
  **********************
  
  Surcharging occurs when water rises above the top of the highest conduit.
  ---------------------------------------------------------------------
                                               Max. Height   Min. Depth
                                   Hours       Above Crown    Below Rim
  Node                 Type      Surcharged         Meters       Meters
  ---------------------------------------------------------------------
  Nod_100              JUNCTION       85.66          1.750        0.000
  Nod_890              JUNCTION       36.88          0.900        0.000
  Nod_891              JUNCTION       35.79          0.770        0.000
  Nod_892              JUNCTION       35.02          0.758        1.142
  Nod_103              JUNCTION       31.76          0.580        0.000
  Nod_104              JUNCTION       32.95          0.780        0.000
  Nod_105              JUNCTION       33.10          0.780        0.000
  Nod_106              JUNCTION       35.60          0.780        0.000
  Nod_107              JUNCTION       35.83          0.780        0.000
  Nod_108              JUNCTION       47.71          2.292        4.638
  Nod_109              JUNCTION       59.44          2.529       24.151
  Nod_110              JUNCTION       28.56          0.529        4.671
  Nod_111              JUNCTION       30.76          0.707        4.723
  Nod_112              JUNCTION       33.52          1.057        4.673
  Nod_113              JUNCTION       34.06          1.151        4.629
  Nod_114              JUNCTION       39.26          1.301        4.829
  Nod_115              JUNCTION       49.34          1.700        4.800
  Nod_116              JUNCTION       49.99          1.832        4.698
  Nod_117              JUNCTION       58.41          3.679        3.251
  Nod_118              JUNCTION       63.52          2.102        5.098
  Nod_119              JUNCTION       61.21          2.611       24.149
  Nod_120              JUNCTION       62.73          2.681       24.149
  Nod_121              JUNCTION       78.49          2.793       24.147
  Nod_122              JUNCTION      133.59          2.914       24.146
  Nod_123              JUNCTION      135.95          2.965       24.145
  Nod_124              JUNCTION      140.53          4.182       23.008
  Nod_136              JUNCTION       25.60          0.056        4.914
  Nod_222              JUNCTION       68.90          2.246        5.104
  Nod_233              JUNCTION       89.17          2.548       24.132
  Nod_244              JUNCTION       91.11          2.625       24.135
  Nod_266              JUNCTION       92.31          2.692       24.138
  Nod_277              JUNCTION       99.42          2.798       24.142
  J1                   JUNCTION     1464.00          4.000        0.000
  J119                 JUNCTION     1464.00      21068.979    99978930.021
  
  
  *********************
  Node Flooding Summary
  *********************
  
  Flooding refers to all water that overflows a node, whether it ponds or not.
  --------------------------------------------------------------------------
                                                             Total   Maximum
                                 Maximum   Time of Max       Flood    Ponded
                        Hours       Rate    Occurrence      Volume     Depth
  Node                 Flooded       CMS   days hr:min    10^6 ltr    Meters
  --------------------------------------------------------------------------
  Nod_100                 0.15     9.992      0  00:00       2.792     0.000
  Nod_890                 0.01     0.049     38  19:41       0.000     0.000
  Nod_891                27.96     2.224     38  20:01     159.099     0.000
  Nod_103                28.90     0.330     38  19:16       0.229     0.000
  Nod_104                 0.01     0.111     38  19:14       0.000     0.000
  Nod_105                 0.01     0.062     38  19:14       0.000     0.000
  Nod_106                28.80     0.027     38  19:33       1.905     0.000
  Nod_107                22.78     0.961     38  19:55      73.009     0.000
  J1                    185.22     0.662     38  17:10       3.135     0.000
  
  
  **********************
  Storage Volume Summary
  **********************
  
  ------------------------------------------------------------------------------------------------
                         Average    Avg   Evap  Exfil     Maximum    Max    Time of Max    Maximum
                          Volume   Pcnt   Pcnt   Pcnt      Volume   Pcnt     Occurrence    Outflow
  Storage Unit           1000 m³   Full   Loss   Loss     1000 m³   Full    days hr:min        CMS
  ------------------------------------------------------------------------------------------------
  c_24_vr_storage_5        0.155    0.0    0.0    0.0       2.979    0.0      52  04:46     19.447
  c_23_vr_storage_7        0.000    0.0    0.0    0.0       0.004    0.0      52  04:45      0.026
  c_22_vr_storage_5        0.000    0.0    0.0    0.0       0.002    0.0      52  04:45      0.013
  c_21_vr_storage_7        0.000    0.0    0.0    0.0       0.004    0.0      52  04:45      0.027
  c_12_vr_storage_8        0.001    0.0    0.0    0.0       0.014    0.0      52  04:49      0.032
  c_20_vr_storage_13       0.001    0.0    0.0    0.0       0.062    0.0      52  04:50      0.084
  c_19_vr_storage_7        0.000    0.0    0.0    0.0       0.004    0.0      52  04:45      0.029
  c_10_vr_storage_10       0.000    0.0    0.0    0.0       0.013    0.0      52  04:50      0.029
  c_16_vr_storage_20       0.002    0.0    0.0    0.0       0.229    0.0      52  04:55      0.221
  c_15_vr_storage_24       0.005    0.0    0.0    0.0       0.375    0.0      52  04:59      0.285
  c_14_vr_storage_24       0.004    0.0    0.0    0.0       0.393    0.0      52  04:59      0.298
  pipe_ES                 11.311    5.7    0.0    0.0     168.980   85.3      52  16:35      5.665
  pipe_Geldrop             0.862    1.7    0.0    0.0      28.567   57.1      38  19:45      3.348
  gb_136                   0.292    1.9    0.0    0.0       8.969   59.8      38  20:05      0.935
  c_129_vr_storage_5       0.000    0.0    0.0    0.0       0.020    0.0      38  17:15      0.163
  c_128_vr_storage_5       0.096    0.0    0.0    0.0       1.061    0.0      38  17:15      6.534
  c_1285_vr_storage_5      0.000    0.0    0.0    0.0       0.021    0.0      38  17:15      0.168
  c_127_vr_storage_5       0.005    0.0    0.0    0.0       0.832    0.0      38  17:17      5.682
  c_126_vr_storage_5       0.001    0.0    0.0    0.0       0.193    0.0      38  17:15      0.981
  c_125_vr_storage_5       0.000    0.0    0.0    0.0       0.053    0.0      38  17:10      0.420
  c_124_storage           18.428    0.2    0.0    0.0      41.797    0.4      53  15:00      0.006
  c_136_vr_storage_5       0.006    0.0    0.0    0.0       0.286    0.0      38  18:20      1.283
  c_135_vr_storage_5       0.001    0.0    0.0    0.0       0.037    0.0      41  09:55      0.285
  c_131_vr_storage_5       0.001    0.0    0.0    0.0       0.049    0.0      38  18:16      0.297
  c_130_vr_storage_5       0.000    0.0    0.0    0.0       0.008    0.0      38  17:15      0.062
  c_134_vr_storage_5       0.000    0.0    0.0    0.0       0.009    0.0      38  18:15      0.070
  c_132_vr_storage_5       0.000    0.0    0.0    0.0       0.008    0.0      38  17:15      0.062
  Aalst_gemaal             5.608    3.9    0.0    0.0     143.732   99.2      52  17:40      3.626
  pre_ontvangstkelder      0.171   58.9    0.0    0.0       0.264   90.8      38  19:52      4.881
  c_150_vr_storage_57      0.096    0.0    0.0    0.0      14.236    0.1      52  05:05      5.522
  c_123_vr_storage_40      0.044    0.0    0.0    0.0       4.666    0.0      52  04:56      2.307
  c_143_vr_storage_70      0.782    0.0    0.0    0.0      29.442    0.3      52  05:45      8.272
  c_147_vr_storage_4       0.000    0.0    0.0    0.0       0.019    0.0      52  04:35      0.129
  c_160_vr_storage_8       0.025    0.0    0.0    0.0       0.082    0.0      38  17:10      0.187
  c_145_vr_storage_4       0.000    0.0    0.0    0.0       0.008    0.0      38  17:05      0.059
  c_144_vr_storage_19      0.004    0.0    0.0    0.0       0.490    0.0      52  04:45      0.479
  c_142_vr_storage_35      0.030    0.0    0.0    0.0       2.802    0.0      52  04:55      1.549
  c_148_vr_storage_12      0.001    0.0    0.0    0.0       0.136    0.0      52  04:38      0.306
  c_149_vr_storage_17      0.002    0.0    0.0    0.0       0.271    0.0      52  04:45      0.367
  c_151_vr_storage_22      0.004    0.0    0.0    0.0       0.695    0.0      52  04:45      0.682
  c_161_vr_storage_32      0.013    0.0    0.0    0.0       1.977    0.0      52  04:55      1.268
  c_138_vr_storage_22      0.009    0.0    0.0    0.0       0.837    0.0      52  04:45      0.794
  c_139_vr_storage_8       0.000    0.0    0.0    0.0       0.058    0.0      52  04:37      0.131
  c_137_vr_storage_4       0.000    0.0    0.0    0.0       0.008    0.0      38  17:05      0.060
  c_122_vr_storage_29      0.015    0.0    0.0    0.0       2.523    0.0      52  04:35      1.666
  c_121_vr_storage_12      0.002    0.0    0.0    0.0       0.101    0.0      52  04:40      0.202
  c_120_vr_storage_8       0.001    0.0    0.0    0.0       0.043    0.0      52  04:34      0.099
  c_119_vr_storage_80      0.304    0.0    0.0    0.0      24.263    0.2      52  05:25      7.014
  c_100_vr_storage_10      0.001    0.0    0.0    0.0       0.082    0.0      52  04:30      0.185
  c_118_vr_storage_13      0.001    0.0    0.0    0.0       0.224    0.0      52  04:31      0.304
  c_116_vr_storage_15      0.003    0.0    0.0    0.0       0.340    0.0      52  04:37      0.435
  c_114_vr_storage_10      0.001    0.0    0.0    0.0       0.070    0.0      52  04:30      0.159
  c_112_vr_storage_21      0.005    0.0    0.0    0.0       1.202    0.0      52  04:25      1.366
  c_107_vr_storage_36      0.032    0.0    0.0    0.0       2.751    0.0      52  04:55      1.624
  c_107_2_vr_storage_12     0.000    0.0    0.0    0.0       0.077    0.0      52  04:35      0.176
  c_106_vr_storage_13      0.002    0.0    0.0    0.0       0.162    0.0      52  04:35      0.235
  c_99_vr_storage_41       0.037    0.0    0.0    0.0       3.544    0.0      52  04:55      1.772
  c_103_vr_storage_8       0.000    0.0    0.0    0.0       0.048    0.0      52  04:29      0.108
  c_98_vr_storage_20       0.005    0.0    0.0    0.0       0.503    0.0      52  04:39      0.504
  gb127                    0.207    1.1    0.0    0.0       9.381   50.4      38  18:20      2.933
  c_123                    0.168    0.6    0.0    0.0       9.773   32.6      38  21:55      0.284
  c_122                    0.537    5.4    0.0    0.0       6.357   63.6      38  21:59      0.031
  c_112                    0.028    1.4    0.0    0.0       1.733   86.7      52  04:55      0.786
  c_99                     0.021    0.1    0.0    0.0       3.952   19.8      52  06:40      0.556
  c_119_1                  0.117    1.2    0.0    0.0       5.068   50.7      52  06:10      2.356
  c_119_2                  0.082    0.8    0.0    0.0       7.017   70.2      38  21:30      0.615
  c_119_3                  0.096    0.5    0.0    0.0       8.464   42.3      38  22:20      0.389
  
  
  ***********************
  Outfall Loading Summary
  ***********************
  
  -----------------------------------------------------------
                         Flow       Avg       Max       Total
                         Freq      Flow      Flow      Volume
  Outfall Node           Pcnt       CMS       CMS    10^6 ltr
  -----------------------------------------------------------
  cso_Geldrop            0.49     0.610     2.548      15.580
  cso_gb_136             0.71     0.178     0.744       6.688
  cso_RZ                 0.00     0.000     0.000       0.000
  cso_ES_1               0.20     0.932     1.777       9.675
  cso_AALST              0.27     0.745     1.526      10.685
  out_ES                99.62     0.848     3.888    4450.152
  out_RZ                96.31     0.732     4.881    3713.431
  cso_gb127              0.76     0.840     2.617      33.476
  cso_c_122              0.00     0.000     0.000       0.000
  cso_c_119_1            0.76     0.560     2.113      22.292
  cso_c_112              0.33     0.149     0.725       2.563
  cso_c_99               0.00     0.000     0.000       0.000
  cso_c_123              0.00     0.000     0.000       0.000
  cso_c_119_2            0.06     0.120     0.275       0.409
  cso_c_119_3            0.00     0.000     0.000       0.000
  -----------------------------------------------------------
  System                13.30     5.712     9.094    8264.951
  
  
  ********************
  Link Flow Summary
  ********************
  
  -----------------------------------------------------------------------------
                                 Maximum  Time of Max   Maximum    Max/    Max/
                                  |Flow|   Occurrence   |Veloc|    Full    Full
  Link                 Type          CMS  days hr:min     m/sec    Flow   Depth
  -----------------------------------------------------------------------------
  Con_158              CONDUIT     2.155    38  20:01      0.90    0.06    1.00
  Con_159              CONDUIT     1.030    38  19:22      0.40    0.15    1.00
  Con_160              CONDUIT     1.019    38  19:22      1.04    0.05    1.00
  Con_101              CONDUIT     0.817     0  00:05      0.91    2.54    1.00
  Con_102              CONDUIT     0.668    42  00:05      0.67    1.46    1.00
  Con_103              CONDUIT     0.699    39  00:06      0.76    0.92    1.00
  Con_104              CONDUIT     0.660    39  00:05      1.51    0.66    1.00
  Con_105              CONDUIT     0.739    39  00:05      0.85    1.58    1.00
  Con_106              CONDUIT     0.916    39  00:07      0.92    1.19    1.00
  Con_107              CONDUIT     3.537    45  00:03      0.98    0.86    1.00
  Con_108              CONDUIT     3.455    45  00:03      1.30    0.78    1.00
  Con_109              CONDUIT     4.064    39  00:09      1.09    0.69    1.00
  Con_110              CONDUIT     4.064    42  00:09      1.21    0.63    1.00
  Con_157              CONDUIT     2.155    38  20:01      0.91    0.06    1.00
  Con_111              CONDUIT     3.834    42  00:09      0.80    0.67    1.00
  Con_112              CONDUIT     3.812    42  00:09      1.01    0.52    1.00
  Con_113              CONDUIT     3.812    42  00:09      1.20    0.88    1.00
  Con_114              CONDUIT     3.811    42  00:09      1.19    0.96    1.00
  Con_115              CONDUIT     3.811    42  00:09      1.17    0.92    1.00
  Con_116              CONDUIT     3.811    42  00:09      1.21    0.92    1.00
  Con_117              CONDUIT     5.870    52  06:40      2.13    0.39    1.00
  Con_118              CONDUIT     3.406    45  00:03      1.08    0.86    1.00
  Con_119              CONDUIT     3.333    45  00:03      0.87    0.67    1.00
  Con_120              CONDUIT     3.288    45  00:03      0.81    0.69    1.00
  Con_121              CONDUIT     3.297    45  00:03      0.95    0.65    1.00
  Con_122              CONDUIT     6.861    39  00:03      3.43    1.48    1.00
  Con_123              CONDUIT     6.860    39  00:03      8.73    0.07    1.00
  Con_125              CONDUIT     2.117    38  20:01      1.01    0.92    0.74
  Con_126              CONDUIT     2.116    52  05:12      1.06    1.45    0.74
  Con_127              CONDUIT     2.105    38  20:02      1.72    0.33    0.70
  Con_128              CONDUIT     2.554     0  00:04      1.57    1.07    0.70
  Con_129              CONDUIT     9.744     0  00:01      4.13    1.27    0.88
  Con_130              CONDUIT     7.133     0  00:05      1.83    1.50    0.83
  Con_140              CONDUIT     5.318     0  00:05      2.11    1.00    0.88
  Con_141              CONDUIT     4.519     0  00:06      1.59    0.95    0.92
  Con_142              CONDUIT     3.567     0  00:07      1.58    0.75    0.97
  Con_143              CONDUIT     3.300    53  00:07      1.74    0.69    0.99
  Con_144              CONDUIT     3.636    53  00:06      1.00    0.98    1.00
  Con_152              CONDUIT     3.810    42  00:09      1.09    1.43    1.00
  Con_153              CONDUIT     3.809    42  00:09      1.08    1.33    1.00
  Con_154              CONDUIT     3.809    42  00:09      1.14    1.49    1.00
  Con_155              CONDUIT     3.808    42  00:09      1.10    1.17    1.00
  Con_156              CONDUIT     3.807    42  00:09      1.37    1.03    1.00
  eeneind_out          CONDUIT     0.104    53  00:00      3.55    1.13    0.58
  P_c_24_d_5           PUMP       19.447    52  04:45              1.94
  P_c_23_d_7           PUMP        0.026    52  04:45              0.00
  P_c_22_d_5           PUMP        0.013    52  04:45              0.00
  P_c_21_d_7           PUMP        0.027    52  04:45              0.00
  P_c_12_d_8           PUMP        0.032    52  04:50              0.00
  P_c_20_d_13          PUMP        0.084    52  04:55              0.01
  P_c_19_d_7           PUMP        0.029    52  04:45              0.00
  P_c_10_d_10          PUMP        0.029    52  04:55              0.00
  P_c_16_d_20          PUMP        0.221    52  05:00              0.02
  P_c_15_d_24          PUMP        0.285    52  05:05              0.03
  P_c_14_d_24          PUMP        0.298    52  05:05              0.03
  P_c_129_d_5          PUMP        0.163    38  17:15              0.02
  P_c_128_d_5          PUMP        6.534    38  17:15              0.65
  P_c_1285_d_5         PUMP        0.168    38  17:15              0.02
  P_c_127_d_5          PUMP        5.682    38  17:15              0.57
  P_c_126_d_5          PUMP        0.981    38  17:15              0.10
  P_c_125_d_5          PUMP        0.420    38  17:10              0.04
  P_c_136_d_5          PUMP        1.283    38  18:20              0.13
  P_c_135_d_5          PUMP        0.285    38  18:15              0.03
  P_c_131_d_5          PUMP        0.297    38  18:15              0.03
  P_c_130_d_5          PUMP        0.062    38  17:15              0.01
  P_c_134_d_5          PUMP        0.070    38  18:15              0.01
  P_c_132_d_5          PUMP        0.062    38  17:15              0.01
  Con_1119.1           PUMP        0.191    17  14:15              1.00
  P_riool_zuid_out     PUMP        4.881    39  00:00              1.03
  P_eindhoven_out      PUMP        3.888    38  20:10              1.00
  P_c_150_d_57         PUMP        5.522    52  05:25              0.55
  P_c_123_d_40         PUMP        2.307    52  05:10              0.23
  P_c_143_d_70         PUMP        8.272    52  06:05              0.83
  P_c_147_d_4          PUMP        0.129    38  17:05              0.01
  P_c_160_d_8          PUMP        0.187    38  17:10              0.02
  P_c_145_d_4          PUMP        0.059    38  17:05              0.01
  P_c_144_d_19         PUMP        0.479    52  04:50              0.05
  P_c_142_d_35         PUMP        1.549    52  05:05              0.15
  P_c_148_d_12         PUMP        0.306    52  04:40              0.03
  P_c_149_d_17         PUMP        0.367    52  04:50              0.04
  P_c_151_d_22         PUMP        0.682    52  04:50              0.07
  P_c_161_d_32         PUMP        1.268    52  05:05              0.13
  P_c_138_d_22         PUMP        0.794    52  04:55              0.08
  P_c_139_d_8          PUMP        0.131    52  04:40              0.01
  P_c_137_d_4          PUMP        0.060    38  17:05              0.01
  P_c_122_d_29         PUMP        1.666    38  17:25              0.17
  P_c_121_d_12         PUMP        0.202    52  04:45              0.02
  P_c_120_d_8          PUMP        0.099    52  04:35              0.01
  P_c_119_d_80         PUMP        7.014    52  05:45              0.70
  P_c_100_d_10         PUMP        0.185    52  04:30              0.02
  P_c_118_d_13         PUMP        0.304    52  04:40              0.03
  P_c_116_d_15         PUMP        0.435    52  04:40              0.04
  P_c_114_d_10         PUMP        0.159    52  04:35              0.02
  P_c_112_d_21         PUMP        1.366    38  17:15              0.14
  P_c_107_d_36         PUMP        1.624    52  05:05              0.16
  P_c_107_2_d_12       PUMP        0.176    52  04:35              0.02
  P_c_106_d_13         PUMP        0.235    52  04:40              0.02
  P_c_99_d_41          PUMP        1.772    52  05:05              0.18
  P_c_103_d_8          PUMP        0.108    52  04:30              0.01
  P_c_98_d_20          PUMP        0.504    52  04:45              0.05
  P_aalst_1            PUMP        0.560     0  00:05              1.00
  P_aalst_2            PUMP        0.560     0  00:05              1.00
  P_aalst_3            PUMP        0.490     0  00:05              1.00
  P_aalst_4            PUMP        0.490     0  00:00              1.00
  P_pipe_Geldrop       PUMP        0.800    13  21:55              1.00
  P_gb127              PUMP        0.316    13  21:50              1.00
  P_c_99               PUMP        0.556    38  17:30              1.00
  P_c_112              PUMP        0.061     9  11:35              1.00
  P_c_119_1            PUMP        0.243     0  00:00              1.00
  P_c_122              PUMP        0.031     9  10:00              1.00
  P_c_123              PUMP        0.284    32  10:30              1.00
  P_c_119_2            PUMP        0.340     0  00:00              1.00
  P_c_119_3            PUMP        0.389     0  00:00              1.00
  P_c_119_fr_040       PUMP       10.000     0  00:00              1.00
  P_c_119_fr_028       PUMP       10.000     0  00:00              1.00
  P_c_119_fr_032       PUMP       10.000     0  00:00              1.00
  P_geldrop_split_1    PUMP       10.000     0  00:00              1.00
  P_geldrop_split_2    PUMP       10.000     0  00:00              1.00
  weir_gb_136          WEIR        0.744    38  20:05                      0.03
  Con_A*HLCMRZ1135.1   WEIR        0.000     0  00:00                      0.00
  weir_ES              WEIR        1.777    52  16:35                      0.06
  Aalst_weir           WEIR        1.526    52  17:40                      0.05
  weir_gb127           WEIR        2.617    38  18:20                      0.08
  weir_pipe_Geldrop    WEIR        2.548    38  19:45                      0.08
  weir_c_123           WEIR        0.000     0  00:00                      0.00
  weir_c_99            WEIR        0.000     0  00:00                      0.00
  weir_c_112           WEIR        0.725    52  04:55                      0.03
  weir_c_119_1         WEIR        2.113    52  06:10                      0.07
  weir_c_122           WEIR        0.000     0  00:00                      0.00
  weir_c_119_2         WEIR        0.275    38  21:30                      0.02
  weir_c_119_3         WEIR        0.000     0  00:00                      0.00
  
  
  ***************************
  Flow Classification Summary
  ***************************
  
  -------------------------------------------------------------------------------------
                      Adjusted    ---------- Fraction of Time in Flow Class ---------- 
                       /Actual         Up    Down  Sub   Sup   Up    Down  Norm  Inlet 
  Conduit               Length    Dry  Dry   Dry   Crit  Crit  Crit  Crit  Ltd   Ctrl  
  -------------------------------------------------------------------------------------
  Con_158                 1.00   0.00  0.00  0.00  1.00  0.00  0.00  0.00  0.00  0.00
  Con_159                 1.00   0.00  0.00  0.00  1.00  0.00  0.00  0.00  0.00  0.00
  Con_160                 1.00   0.00  0.00  0.00  1.00  0.00  0.00  0.00  0.00  0.00
  Con_101                 1.00   0.00  0.00  0.00  0.82  0.00  0.00  0.18  0.00  0.00
  Con_102                 1.00   0.00  0.00  0.00  1.00  0.00  0.00  0.00  0.00  0.00
  Con_103                 1.00   0.00  0.00  0.00  1.00  0.00  0.00  0.00  0.38  0.00
  Con_104                 1.00   0.00  0.00  0.00  1.00  0.00  0.00  0.00  0.00  0.00
  Con_105                 1.00   0.00  0.00  0.00  1.00  0.00  0.00  0.00  0.00  0.00
  Con_106                 1.00   0.00  0.00  0.00  0.04  0.00  0.00  0.96  0.00  0.00
  Con_107                 1.00   0.00  0.00  0.00  1.00  0.00  0.00  0.00  0.12  0.00
  Con_108                 1.00   0.00  0.00  0.00  1.00  0.00  0.00  0.00  0.37  0.00
  Con_109                 1.00   0.00  0.00  0.00  1.00  0.00  0.00  0.00  0.00  0.00
  Con_110                 1.00   0.00  0.00  0.00  1.00  0.00  0.00  0.00  0.00  0.00
  Con_157                 1.00   0.00  0.00  0.00  1.00  0.00  0.00  0.00  0.00  0.00
  Con_111                 1.00   0.00  0.00  0.00  1.00  0.00  0.00  0.00  0.00  0.00
  Con_112                 1.00   0.00  0.00  0.00  1.00  0.00  0.00  0.00  0.88  0.00
  Con_113                 1.00   0.00  0.00  0.00  1.00  0.00  0.00  0.00  0.00  0.00
  Con_114                 1.00   0.00  0.00  0.00  1.00  0.00  0.00  0.00  0.00  0.00
  Con_115                 1.00   0.00  0.00  0.00  1.00  0.00  0.00  0.00  0.73  0.00
  Con_116                 1.00   0.00  0.00  0.00  1.00  0.00  0.00  0.00  0.36  0.00
  Con_117                 1.00   0.00  0.00  0.00  1.00  0.00  0.00  0.00  0.11  0.00
  Con_118                 1.00   0.00  0.00  0.00  1.00  0.00  0.00  0.00  0.00  0.00
  Con_119                 1.00   0.00  0.00  0.00  1.00  0.00  0.00  0.00  0.35  0.00
  Con_120                 1.00   0.00  0.00  0.00  1.00  0.00  0.00  0.00  0.13  0.00
  Con_121                 1.00   0.00  0.00  0.00  1.00  0.00  0.00  0.00  0.00  0.00
  Con_122                 1.00   0.00  0.00  0.00  0.63  0.37  0.00  0.00  0.00  0.00
  Con_123                 1.00   0.00  0.00  0.00  0.87  0.00  0.00  0.13  0.24  0.00
  Con_125                 1.00   0.00  0.00  0.00  1.00  0.00  0.00  0.00  0.76  0.00
  Con_126                 1.00   0.00  0.00  0.00  1.00  0.00  0.00  0.00  0.00  0.00
  Con_127                 1.00   0.00  0.00  0.00  1.00  0.00  0.00  0.00  0.91  0.00
  Con_128                 1.00   0.00  0.00  0.00  0.02  0.00  0.00  0.98  0.00  0.00
  Con_129                 1.00   0.00  0.00  0.00  1.00  0.00  0.00  0.00  0.91  0.00
  Con_130                 1.00   0.00  0.00  0.00  1.00  0.00  0.00  0.00  0.02  0.00
  Con_140                 1.00   0.00  0.00  0.00  1.00  0.00  0.00  0.00  0.00  0.00
  Con_141                 1.00   0.00  0.00  0.00  1.00  0.00  0.00  0.00  0.22  0.00
  Con_142                 1.00   0.00  0.00  0.00  1.00  0.00  0.00  0.00  0.00  0.00
  Con_143                 1.00   0.00  0.00  0.00  1.00  0.00  0.00  0.00  0.00  0.00
  Con_144                 1.00   0.00  0.00  0.00  0.74  0.00  0.00  0.26  0.00  0.00
  Con_152                 1.00   0.00  0.00  0.00  1.00  0.00  0.00  0.00  0.16  0.00
  Con_153                 1.00   0.00  0.00  0.00  1.00  0.00  0.00  0.00  0.03  0.00
  Con_154                 1.00   0.00  0.00  0.00  1.00  0.00  0.00  0.00  0.00  0.00
  Con_155                 1.00   0.00  0.00  0.00  1.00  0.00  0.00  0.00  0.00  0.00
  Con_156                 1.00   0.00  0.00  0.00  1.00  0.00  0.00  0.00  0.00  0.00
  eeneind_out             1.00   0.00  0.00  0.00  0.92  0.07  0.00  0.00  0.90  0.00
  
  
  *************************
  Conduit Surcharge Summary
  *************************
  
  ----------------------------------------------------------------------------
                                                           Hours        Hours 
                         --------- Hours Full --------   Above Full   Capacity
  Conduit                Both Ends  Upstream  Dnstream   Normal Flow   Limited
  ----------------------------------------------------------------------------
  Con_158                    35.79     35.79     36.88      0.01         0.05
  Con_159                    35.02     35.02     35.79      0.01         0.02
  Con_160                    35.02     35.02     38.35      0.01         0.01
  Con_101                    30.71     85.65     31.76     98.75        30.71
  Con_102                    32.35     32.89     32.95     88.89        30.85
  Con_103                    33.10     33.10     35.60      0.01         0.03
  Con_104                    32.95     32.95     33.10      0.01         0.01
  Con_105                    35.49     35.60     35.83     62.08         8.84
  Con_106                    35.75     35.83     47.71      0.90         0.06
  Con_107                    53.83     53.83     59.44      0.01         0.12
  Con_108                    59.44     59.44     61.21      0.01         0.11
  Con_109                    30.26     30.26     30.76      0.01         0.01
  Con_110                    30.76     30.76     33.52      0.01         0.01
  Con_157                    36.88     36.88     38.38      0.01         0.06
  Con_111                    38.38     38.38     39.04      0.01         0.02
  Con_112                    34.06     34.06     39.26      0.01         0.01
  Con_113                    47.78     47.78     49.34      0.01         0.12
  Con_114                    49.34     49.34     49.99      0.01         0.21
  Con_115                    49.99     49.99     58.41      0.01         0.13
  Con_116                    58.41     58.41     66.79      0.01         0.13
  Con_117                    63.51     63.51    158.39      0.01         0.01
  Con_118                    61.21     61.21     62.73      0.01         0.12
  Con_119                    62.73     62.73     78.48      0.01         0.10
  Con_120                    78.48     78.48    133.59      0.01         0.10
  Con_121                   133.58    133.59    135.95      0.01         0.08
  Con_122                   135.88    135.95    140.52      0.69         0.69
  Con_123                   140.52    140.52   1235.20      0.01         0.01
  Con_126                     0.01      0.01      0.01    128.27         0.01
  Con_128                     0.01      0.01      0.01      0.03         0.01
  Con_129                     0.01      0.01      0.01      0.02         0.01
  Con_130                     0.01      0.01      0.01      0.06         0.01
  Con_143                     0.01      0.01     25.59      0.01         0.01
  Con_144                    25.59     25.59     28.56      0.01         0.01
  Con_152                    68.89     68.89     89.17     13.63        13.51
  Con_153                    89.17     89.17     91.11     10.82        10.85
  Con_154                    91.11     91.11     92.31     17.53        17.52
  Con_155                    92.31     92.31     99.42      6.66         6.60
  Con_156                    99.41     99.42    135.95      0.16         0.29
  eeneind_out                 0.01      0.01   1110.93     30.88         0.01
  
  
  ***************
  Pumping Summary
  ***************
  
  ---------------------------------------------------------------------------------------------------------
                                                  Min       Avg       Max     Total     Power    % Time Off
                        Percent   Number of      Flow      Flow      Flow    Volume     Usage    Pump Curve
  Pump                 Utilized   Start-Ups       CMS       CMS       CMS  10^6 ltr     Kw-hr    Low   High
  ---------------------------------------------------------------------------------------------------------
  P_c_24_d_5             100.00           1      0.00      0.85     19.45  4467.555   4477.04    0.0  100.0
  P_c_23_d_7             100.00           1      0.00      0.00      0.03     6.773      0.01    0.0  100.0
  P_c_22_d_5              14.17          18      0.00      0.00      0.01     0.742      0.00    0.0  100.0
  P_c_21_d_7             100.00           1      0.00      0.00      0.03     6.543      0.01    0.0  100.0
  P_c_12_d_8             100.00           1      0.00      0.00      0.03    10.111      0.01    0.0   99.8
  P_c_20_d_13             16.11          16      0.00      0.01      0.08     4.645      0.01    0.0   97.6
  P_c_19_d_7             100.00           1      0.00      0.00      0.03     5.614      0.01    0.0  100.0
  P_c_10_d_10             18.27          14      0.00      0.00      0.03     2.533      0.01    0.0   97.0
  P_c_16_d_20             16.36          17      0.00      0.01      0.22    12.264      0.03    0.0   96.7
  P_c_15_d_24            100.00           1      0.00      0.00      0.28    21.665      0.04    0.0   99.4
  P_c_14_d_24             16.38          16      0.00      0.02      0.30    16.537      0.04    0.0   96.0
  P_c_129_d_5              7.95          13      0.00      0.01      0.16     3.671      0.00    0.0  100.0
  P_c_128_d_5            100.00           1      0.00      0.16      6.53   861.534  36436.29    0.0  100.0
  P_c_1285_d_5           100.00           1      0.00      0.00      0.17     6.648      0.01    0.0  100.0
  P_c_127_d_5            100.00           1      0.00      0.05      5.68   285.368    176.58    0.0    4.8
  P_c_126_d_5            100.00           1      0.00      0.03      0.98   143.285      0.01    0.0   96.9
  P_c_125_d_5            100.00           1      0.00      0.00      0.42     5.704      0.00    0.0   99.8
  P_c_136_d_5            100.00           1      0.00      0.04      1.28   227.400  10281.57    0.0  100.0
  P_c_135_d_5            100.00           1      0.00      0.01      0.28    31.064      0.00    0.0   99.9
  P_c_131_d_5            100.00           1      0.00      0.01      0.30    36.968      0.00    0.0  100.0
  P_c_130_d_5            100.00           1      0.00      0.00      0.06     7.399      0.00    0.0   99.0
  P_c_134_d_5            100.00           1      0.00      0.00      0.07     7.064      0.00    0.0   99.9
  P_c_132_d_5            100.00           1      0.00      0.00      0.06     6.134      0.00    0.0   99.9
  Con_1119.1             100.00           1      0.00      0.04      0.19   220.713    715.65    0.0    6.3
  P_riool_zuid_out        96.31          17      0.00      0.73      4.88  3713.431 108926.73    0.0   87.3
  P_eindhoven_out         99.62         114      0.00      0.85      3.89  4450.152   4413.12    0.0  100.0
  P_c_150_d_57           100.00           1      0.00      0.04      5.52   222.352    536.02    0.0   99.2
  P_c_123_d_40           100.00           1      0.00      0.02      2.31   113.797    683.44    0.0    3.4
  P_c_143_d_70           100.00           1      0.00      0.22      8.27  1146.302   1938.67    0.0   53.2
  P_c_147_d_4              8.30          13      0.00      0.01      0.13     2.819      0.08    0.0  100.0
  P_c_160_d_8            100.00           1      0.00      0.05      0.19   271.740      0.80    0.0  100.0
  P_c_145_d_4            100.00           1      0.00      0.00      0.06     4.217      0.03    0.0  100.0
  P_c_144_d_19           100.00           1      0.00      0.00      0.48    23.096      0.46    0.0  100.0
  P_c_142_d_35           100.00           1      0.00      0.02      1.55    90.584      1.56    0.0  100.0
  P_c_148_d_12           100.00           1      0.00      0.00      0.31    12.007      0.22    0.0  100.0
  P_c_149_d_17            11.48          17      0.00      0.02      0.37    11.407      0.34    0.0  100.0
  P_c_151_d_22           100.00           1      0.00      0.00      0.68    22.250      0.58    0.0  100.0
  P_c_161_d_32            12.04          16      0.00      0.07      1.27    41.977      1.26    0.0  100.0
  P_c_138_d_22           100.00           1      0.00      0.01      0.79    50.764      0.74    0.0  100.0
  P_c_139_d_8              8.46          14      0.00      0.01      0.13     3.001      0.00    0.0   99.9
  P_c_137_d_4            100.00           1      0.00      0.00      0.06     9.697      0.00    0.0   99.1
  P_c_122_d_29           100.00           1      0.00      0.01      1.67    54.651    238.92    0.0   20.9
  P_c_121_d_12           100.00           1      0.00      0.01      0.20    55.785     50.74    0.0   99.3
  P_c_120_d_8            100.00           1      0.00      0.00      0.10     8.852      0.00    0.0   99.3
  P_c_119_d_80           100.00           1      0.00      0.07      7.01   378.372 3752438.08    0.0   97.4
  P_c_100_d_10           100.00           1      0.00      0.00      0.18     7.164      0.08    0.0   99.6
  P_c_118_d_13             7.65          16      0.00      0.02      0.30     6.195      0.14    0.0  100.0
  P_c_116_d_15           100.00           1      0.00      0.00      0.44    21.048     36.69    0.0   99.3
  P_c_114_d_10           100.00           1      0.00      0.00      0.16     7.069      0.00    0.0   99.5
  P_c_112_d_21           100.00           1      0.00      0.00      1.37    25.811     36.64    0.0    3.8
  P_c_107_d_36           100.00           1      0.00      0.15      1.62   772.584    540.16    0.0   99.3
  P_c_107_2_d_12         100.00           1      0.00      0.00      0.18     6.196      0.01    0.0  100.0
  P_c_106_d_13           100.00           1      0.00      0.01      0.24    68.913      0.02    0.0   99.8
  P_c_99_d_41            100.00           1      0.00      0.02      1.77    96.116    167.24    0.0    1.1
  P_c_103_d_8            100.00           1      0.00      0.00      0.11     5.365      0.01    0.0   99.2
  P_c_98_d_20            100.00           1      0.00      0.01      0.50    28.148     51.93    0.0   99.3
  P_aalst_1               12.71         630      0.00      0.56      0.56   371.759  18235.65    0.0   94.5
  P_aalst_2                9.41         146      0.00      0.56      0.56   277.308  13457.06    0.0   98.0
  P_aalst_3                9.00          87      0.00      0.49      0.49   232.108  11236.92    0.0   98.9
  P_aalst_4              100.00           1      0.00      0.38      0.49  2023.608 101618.79    0.0   99.3
  P_pipe_Geldrop         100.00           1      0.00      0.16      0.80   845.956   4706.63    0.0    6.1
  P_gb127                100.00           1      0.00      0.05      0.32   251.894     93.51    0.0    4.8
  P_c_99                 100.00           1      0.00      0.02      0.56    96.118    184.52    0.0    1.1
  P_c_112                100.00           1      0.00      0.00      0.06    23.249     35.75    0.0    3.8
  P_c_119_1              100.00           9      0.00      0.03      0.24   132.060    268.04    0.0  100.0
  P_c_122                100.00           1      0.00      0.01      0.03    54.651    177.91    0.0   20.9
  P_c_123                100.00           1      0.00      0.02      0.28   113.798    498.73    0.0    3.4
  P_c_119_2              100.00           9      0.00      0.02      0.34   108.540    308.64    0.0  100.0
  P_c_119_3              100.00           9      0.00      0.02      0.39   124.083    416.43    0.0  100.0
  P_c_119_fr_040         100.00           1      0.00      0.03     10.00   154.344 1500287.52    0.0    2.6
  P_c_119_fr_028         100.00           1      0.00      0.02     10.00   108.941 1050300.44    0.0    2.6
  P_c_119_fr_032         100.00           1      0.00      0.02     10.00   124.075 1200272.37    0.0    2.6
  P_geldrop_split_1      100.00           1      0.00      0.08     10.00   425.767   2580.29    0.0   52.6
  P_geldrop_split_2      100.00           1      0.00      0.08     10.00   425.767   2453.43    0.0    7.6
  

  Analysis begun on:  Sat Apr 12 14:38:50 2025
  Analysis ended on:  Sat Apr 12 14:46:17 2025
  Total elapsed time: 00:07:27