
  EPA STORM WATER MANAGEMENT MODEL - VERSION 5.2 (Build 5.2.4)
  PYSWMM TOOLKIT API - VERSION v1.0 (2023-11-27)
  ------------------------------------------------------------

  WARNING 02: maximum depth increased for Node gb127
  
  ****************
  Analysis Options
  ****************
  Flow Units ............... CMS
  Process Models:
    Rainfall/Runoff ........ YES
    RDII ................... NO
    Snowmelt ............... NO
    Groundwater ............ NO
    Flow Routing ........... YES
    Ponding Allowed ........ NO
    Water Quality .......... NO
  Infiltration Method ...... HORTON
  Flow Routing Method ...... DYNWAVE
  Surcharge Method ......... EXTRAN
  Starting Date ............ 07/01/2024 00:00:00
  Ending Date .............. 08/01/2024 00:00:00
  Antecedent Dry Days ...... 0.0
  Report Time Step ......... 00:05:00
  Wet Time Step ............ 00:01:00
  Dry Time Step ............ 00:10:00
  Routing Time Step ........ 2.00 sec
  Variable Time Step ....... YES
  Maximum Trials ........... 12
  Number of Threads ........ 2
  Head Tolerance ........... 0.000200 m
  
  
  *********************
  Rainfall File Summary
  *********************
  Station    First        Last         Recording   Periods    Periods    Periods
  ID         Date         Date         Frequency  w/Precip    Missing    Malfunc.
  -------------------------------------------------------------------------------
  ES         01/01/2024   12/31/2024       5 min    105217          0          0

  GE         01/01/2024   12/31/2024       5 min    105217          0          0

  RZ1        01/01/2024   12/31/2024       5 min    105217          0          0

  RZ2        01/01/2024   12/31/2024       5 min    105217          0          0

  
  
  **************************        Volume         Depth
  Runoff Quantity Continuity     hectare-m            mm
  **************************     ---------       -------
  Total Precipitation ......         0.000         0.000
  Evaporation Loss .........         0.000         0.000
  Infiltration Loss ........         0.000         0.000
  Surface Runoff ...........         0.000         0.000
  Final Storage ............         0.000         0.000
  Continuity Error (%) .....         0.000
  
  
  **************************        Volume        Volume
  Flow Routing Continuity        hectare-m      10^6 ltr
  **************************     ---------     ---------
  Dry Weather Inflow .......         0.030         0.295
  Wet Weather Inflow .......         0.000         0.000
  Groundwater Inflow .......         0.000         0.000
  RDII Inflow ..............         0.000         0.000
  External Inflow ..........         0.065         0.651
  External Outflow .........         0.097         0.971
  Flooding Loss ............         0.279         2.788
  Evaporation Loss .........         0.000         0.000
  Exfiltration Loss ........         0.000         0.000
  Initial Stored Volume ....         0.804         8.043
  Final Stored Volume ......         1.949        19.492
  Continuity Error (%) .....      -158.657
  
  
  *************************
  Highest Continuity Errors
  *************************
  Node J119 (-79207.69%)
  Node J1 (-3806.67%)
  Node Nod_114 (-165.22%)
  Node Nod_233 (-122.86%)
  Node Nod_109 (-105.32%)
  
  
  ***************************
  Time-Step Critical Elements
  ***************************
  None
  
  
  ********************************
  Highest Flow Instability Indexes
  ********************************
  Link P_aalst_4 (10)
  Link P_aalst_2 (10)
  Link P_aalst_3 (10)
  Link P_aalst_1 (10)
  Link Con_126 (4)
  
  
  *********************************
  Most Frequent Nonconverging Nodes
  *********************************
  Node cso_Geldrop (4.44%)
  Node cso_gb_136 (4.44%)
  Node cso_RZ (4.44%)
  Node cso_ES_1 (4.44%)
  Node cso_AALST (4.44%)
  
  
  *************************
  Routing Time Step Summary
  *************************
  Minimum Time Step           :     1.50 sec
  Average Time Step           :     2.00 sec
  Maximum Time Step           :     2.00 sec
  % of Time in Steady State   :     0.00
  Average Iterations per Step :     2.70
  % of Steps Not Converging   :     4.44
  Time Step Frequencies       :
      2.000 -  1.516 sec      :    99.89 %
      1.516 -  1.149 sec      :     0.11 %
      1.149 -  0.871 sec      :     0.00 %
      0.871 -  0.660 sec      :     0.00 %
      0.660 -  0.500 sec      :     0.00 %
  
  
  ***************************
  Subcatchment Runoff Summary
  ***************************
  
  ------------------------------------------------------------------------------------------------------------------------------
                            Total      Total      Total      Total     Imperv       Perv      Total       Total     Peak  Runoff
                           Precip      Runon       Evap      Infil     Runoff     Runoff     Runoff      Runoff   Runoff   Coeff
  Subcatchment                 mm         mm         mm         mm         mm         mm         mm    10^6 ltr      CMS
  ------------------------------------------------------------------------------------------------------------------------------
  c_24_catchment             0.00       0.00       0.00       0.00       0.00       0.00       0.00        0.00     0.00   0.000
  c_23_catchment             0.00       0.00       0.00       0.00       0.00       0.00       0.00        0.00     0.00   0.000
  c_22_catchment             0.00       0.00       0.00       0.00       0.00       0.00       0.00        0.00     0.00   0.000
  c_21_catchment             0.00       0.00       0.00       0.00       0.00       0.00       0.00        0.00     0.00   0.000
  c_12_catchment             0.00       0.00       0.00       0.00       0.00       0.00       0.00        0.00     0.00   0.000
  c_20_catchment             0.00       0.00       0.00       0.00       0.00       0.00       0.00        0.00     0.00   0.000
  c_19_catchment             0.00       0.00       0.00       0.00       0.00       0.00       0.00        0.00     0.00   0.000
  c_10_catchment             0.00       0.00       0.00       0.00       0.00       0.00       0.00        0.00     0.00   0.000
  c_16_catchment             0.00       0.00       0.00       0.00       0.00       0.00       0.00        0.00     0.00   0.000
  c_15_catchment             0.00       0.00       0.00       0.00       0.00       0.00       0.00        0.00     0.00   0.000
  c_14_catchment             0.00       0.00       0.00       0.00       0.00       0.00       0.00        0.00     0.00   0.000
  c_129_catchment            0.00       0.00       0.00       0.00       0.00       0.00       0.00        0.00     0.00   0.000
  c_128_catchment            0.00       0.00       0.00       0.00       0.00       0.00       0.00        0.00     0.00   0.000
  c_1285_catchment           0.00       0.00       0.00       0.00       0.00       0.00       0.00        0.00     0.00   0.000
  c_127_catchment            0.00       0.00       0.00       0.00       0.00       0.00       0.00        0.00     0.00   0.000
  c_126_catchment            0.00       0.00       0.00       0.00       0.00       0.00       0.00        0.00     0.00   0.000
  c_125_catchment            0.00       0.00       0.00       0.00       0.00       0.00       0.00        0.00     0.00   0.000
  c_124_catchment            0.00       0.00       0.00       0.00       0.00       0.00       0.00        0.00     0.00   0.000
  c_136_catchment            0.00       0.00       0.00       0.00       0.00       0.00       0.00        0.00     0.00   0.000
  c_135_catchment            0.00       0.00       0.00       0.00       0.00       0.00       0.00        0.00     0.00   0.000
  c_131_catchment            0.00       0.00       0.00       0.00       0.00       0.00       0.00        0.00     0.00   0.000
  c_130_catchment            0.00       0.00       0.00       0.00       0.00       0.00       0.00        0.00     0.00   0.000
  c_134_catchment            0.00       0.00       0.00       0.00       0.00       0.00       0.00        0.00     0.00   0.000
  c_132_catchment            0.00       0.00       0.00       0.00       0.00       0.00       0.00        0.00     0.00   0.000
  c_150_catchment            0.00       0.00       0.00       0.00       0.00       0.00       0.00        0.00     0.00   0.000
  c_123_catchment            0.00       0.00       0.00       0.00       0.00       0.00       0.00        0.00     0.00   0.000
  c_143_catchment            0.00       0.00       0.00       0.00       0.00       0.00       0.00        0.00     0.00   0.000
  c_147_catchment            0.00       0.00       0.00       0.00       0.00       0.00       0.00        0.00     0.00   0.000
  c_160_catchment            0.00       0.00       0.00       0.00       0.00       0.00       0.00        0.00     0.00   0.000
  c_145_catchment            0.00       0.00       0.00       0.00       0.00       0.00       0.00        0.00     0.00   0.000
  c_144_catchment            0.00       0.00       0.00       0.00       0.00       0.00       0.00        0.00     0.00   0.000
  c_142_catchment            0.00       0.00       0.00       0.00       0.00       0.00       0.00        0.00     0.00   0.000
  c_148_catchment            0.00       0.00       0.00       0.00       0.00       0.00       0.00        0.00     0.00   0.000
  c_149_catchment            0.00       0.00       0.00       0.00       0.00       0.00       0.00        0.00     0.00   0.000
  c_151_catchment            0.00       0.00       0.00       0.00       0.00       0.00       0.00        0.00     0.00   0.000
  c_161_catchment            0.00       0.00       0.00       0.00       0.00       0.00       0.00        0.00     0.00   0.000
  c_138_catchment            0.00       0.00       0.00       0.00       0.00       0.00       0.00        0.00     0.00   0.000
  c_139_catchment            0.00       0.00       0.00       0.00       0.00       0.00       0.00        0.00     0.00   0.000
  c_137_catchment            0.00       0.00       0.00       0.00       0.00       0.00       0.00        0.00     0.00   0.000
  c_122_catchment            0.00       0.00       0.00       0.00       0.00       0.00       0.00        0.00     0.00   0.000
  c_121_catchment            0.00       0.00       0.00       0.00       0.00       0.00       0.00        0.00     0.00   0.000
  c_120_catchment            0.00       0.00       0.00       0.00       0.00       0.00       0.00        0.00     0.00   0.000
  c_119_catchment            0.00       0.00       0.00       0.00       0.00       0.00       0.00        0.00     0.00   0.000
  c_100_catchment            0.00       0.00       0.00       0.00       0.00       0.00       0.00        0.00     0.00   0.000
  c_118_catchment            0.00       0.00       0.00       0.00       0.00       0.00       0.00        0.00     0.00   0.000
  c_116_catchment            0.00       0.00       0.00       0.00       0.00       0.00       0.00        0.00     0.00   0.000
  c_114_catchment            0.00       0.00       0.00       0.00       0.00       0.00       0.00        0.00     0.00   0.000
  c_112_catchment            0.00       0.00       0.00       0.00       0.00       0.00       0.00        0.00     0.00   0.000
  c_107_catchment            0.00       0.00       0.00       0.00       0.00       0.00       0.00        0.00     0.00   0.000
  c_107_2_catchment          0.00       0.00       0.00       0.00       0.00       0.00       0.00        0.00     0.00   0.000
  c_106_catchment            0.00       0.00       0.00       0.00       0.00       0.00       0.00        0.00     0.00   0.000
  c_99_catchment             0.00       0.00       0.00       0.00       0.00       0.00       0.00        0.00     0.00   0.000
  c_103_catchment            0.00       0.00       0.00       0.00       0.00       0.00       0.00        0.00     0.00   0.000
  c_98_catchment             0.00       0.00       0.00       0.00       0.00       0.00       0.00        0.00     0.00   0.000
  
  
  ******************
  Node Depth Summary
  ******************
  
  ---------------------------------------------------------------------------------
                                 Average  Maximum  Maximum  Time of Max    Reported
                                   Depth    Depth      HGL   Occurrence   Max Depth
  Node                 Type       Meters   Meters   Meters  days hr:min      Meters
  ---------------------------------------------------------------------------------
  Nod_100              JUNCTION     1.20     2.97    17.45     0  00:00        2.97
  Nod_890              JUNCTION     0.22     0.43    13.36     0  00:30        0.43
  Nod_891              JUNCTION     0.15     0.38    13.38     0  00:30        0.38
  Nod_892              JUNCTION     0.10     0.30    13.36     0  00:30        0.30
  Nod_A*HLCMRZ1135     JUNCTION     0.31     0.54    13.38     0  00:30        0.54
  Nod_103              JUNCTION     0.67     0.77    14.74     0  00:10        0.77
  Nod_104              JUNCTION     0.45     0.53    14.31     0  00:20        0.53
  Nod_105              JUNCTION     0.46     0.54    14.30     0  00:20        0.54
  Nod_106              JUNCTION     0.52     0.56    14.13     0  00:30        0.56
  Nod_107              JUNCTION     0.50     0.54    14.09     0  00:30        0.54
  Nod_108              JUNCTION     0.79     0.83    12.03     0  00:30        0.83
  Nod_109              JUNCTION     0.20     0.50    12.02     0  00:00        0.25
  Nod_110              JUNCTION     0.43     0.68    14.22     0  00:30        0.68
  Nod_111              JUNCTION     0.34     0.63    14.10     0  00:30        0.63
  Nod_112              JUNCTION     0.31     0.54    13.38     0  00:30        0.54
  Nod_113              JUNCTION     0.35     0.57    13.37     0  00:30        0.57
  Nod_114              JUNCTION     0.14     0.32    13.09     0  00:00        0.20
  Nod_115              JUNCTION     0.16     0.28    12.98     0  00:01        0.23
  Nod_116              JUNCTION     0.17     0.23    12.90     0  00:05        0.23
  Nod_117              JUNCTION     0.19     0.20    12.47     0  00:11        0.20
  Nod_118              JUNCTION     0.17     0.18    12.09     0  00:00        0.18
  Nod_119              JUNCTION     0.21     0.39    11.83     0  00:01        0.29
  Nod_120              JUNCTION     0.19     0.31    11.68     0  00:03        0.29
  Nod_121              JUNCTION     0.20     0.27    11.53     0  00:06        0.26
  Nod_122              JUNCTION     0.23     0.28    11.42     0  00:10        0.28
  Nod_123              JUNCTION     0.26     0.31    11.40     0  00:10        0.31
  Nod_124              JUNCTION     0.05     0.10    11.11     0  00:00        0.06
  Nod_126              JUNCTION     0.57     0.62    17.79     0  00:30        0.62
  Nod_127              JUNCTION     0.79     1.12    19.13     0  00:28        1.12
  Nod_128              JUNCTION     0.35     0.67    18.39     0  00:00        0.43
  Nod_129              JUNCTION     0.67     0.89    16.53     0  00:06        0.84
  Nod_130              JUNCTION     0.69     1.70    16.76     0  00:05        1.70
  Nod_131              JUNCTION     0.94     1.81    16.35     0  00:05        1.81
  Nod_132              JUNCTION     0.86     1.36    15.69     0  00:06        1.17
  Nod_133              JUNCTION     0.84     1.36    15.64     0  00:06        1.10
  Nod_134              JUNCTION     0.77     1.06    15.16     0  00:09        1.06
  Nod_135              JUNCTION     0.74     1.01    15.06     0  00:08        0.99
  Nod_136              JUNCTION     0.65     0.95    14.88     0  00:19        0.94
  Nod_222              JUNCTION     0.81     0.88    12.08     0  00:27        0.88
  Nod_233              JUNCTION     0.28     0.56    12.08     0  00:00        0.36
  Nod_244              JUNCTION     0.29     0.48    11.92     0  00:02        0.40
  Nod_266              JUNCTION     0.26     0.39    11.76     0  00:04        0.38
  Nod_277              JUNCTION     0.25     0.32    11.58     0  00:07        0.31
  J1                   JUNCTION     0.00     0.00    15.06     0  00:20        0.00
  J119                 JUNCTION     0.00     0.00     0.00     0  00:00        0.00
  cso_Geldrop          OUTFALL      0.00     0.00     4.62     0  00:00        0.00
  cso_gb_136           OUTFALL      0.00     0.00     1.00     0  00:00        0.00
  cso_RZ               OUTFALL      0.00     0.00    16.07     0  00:00        0.00
  cso_ES_1             OUTFALL      0.00     0.00     0.00     0  00:00        0.00
  cso_AALST            OUTFALL      0.00     0.00     0.00     0  00:00        0.00
  out_ES               OUTFALL      0.00     0.00   -12.00     0  00:00        0.00
  out_RZ               OUTFALL      0.00     0.00     0.00     0  00:00        0.00
  cso_gb127            OUTFALL      0.00     0.00     0.00     0  00:00        0.00
  cso_c_122            OUTFALL      0.00     0.00     0.00     0  00:00        0.00
  cso_c_119_1          OUTFALL      0.00     0.00     0.00     0  00:00        0.00
  cso_c_112            OUTFALL      0.00     0.00     0.00     0  00:00        0.00
  cso_c_99             OUTFALL      0.00     0.00     0.00     0  00:00        0.00
  cso_c_123            OUTFALL      0.00     0.00     0.00     0  00:00        0.00
  cso_c_119_2          OUTFALL      0.00     0.00     0.00     0  00:00        0.00
  cso_c_119_3          OUTFALL      0.00     0.00     0.00     0  00:00        0.00
  c_24_vr_storage_5    STORAGE      0.00     0.00     0.00     0  00:00        0.00
  c_23_vr_storage_7    STORAGE      0.00     0.00     0.00     0  00:00        0.00
  c_22_vr_storage_5    STORAGE      0.00     0.00     0.00     0  00:00        0.00
  c_21_vr_storage_7    STORAGE      0.00     0.00     0.00     0  00:00        0.00
  c_12_vr_storage_8    STORAGE      0.00     0.00     0.00     0  00:00        0.00
  c_20_vr_storage_13   STORAGE      0.00     0.00     0.00     0  00:00        0.00
  c_19_vr_storage_7    STORAGE      0.00     0.00     0.00     0  00:00        0.00
  c_10_vr_storage_10   STORAGE      0.00     0.00     0.00     0  00:00        0.00
  c_16_vr_storage_20   STORAGE      0.00     0.00     0.00     0  00:00        0.00
  c_15_vr_storage_24   STORAGE      0.00     0.00     0.00     0  00:00        0.00
  c_14_vr_storage_24   STORAGE      0.00     0.00     0.00     0  00:00        0.00
  pipe_ES              STORAGE      0.00     0.01     0.01     0  00:30        0.01
  pipe_Geldrop         STORAGE      0.00     0.00    15.06     0  00:00        0.00
  gb_136               STORAGE      0.00     0.00    16.45     0  00:00        0.00
  c_129_vr_storage_5   STORAGE      0.00     0.00     0.00     0  00:00        0.00
  c_128_vr_storage_5   STORAGE      0.00     0.00     0.00     0  00:00        0.00
  c_1285_vr_storage_5  STORAGE      0.00     0.00     0.00     0  00:00        0.00
  c_127_vr_storage_5   STORAGE      0.00     0.00     0.00     0  00:00        0.00
  c_126_vr_storage_5   STORAGE      0.00     0.00     0.00     0  00:00        0.00
  c_125_vr_storage_5   STORAGE      0.00     0.00     0.00     0  00:00        0.00
  c_124_storage        STORAGE      0.00     0.00    14.22     0  00:30        0.00
  c_136_vr_storage_5   STORAGE      0.00     0.00     0.00     0  00:00        0.00
  c_135_vr_storage_5   STORAGE      0.00     0.00     0.00     0  00:00        0.00
  c_131_vr_storage_5   STORAGE      0.00     0.00     0.00     0  00:00        0.00
  c_130_vr_storage_5   STORAGE      0.00     0.00     0.00     0  00:00        0.00
  c_134_vr_storage_5   STORAGE      0.00     0.00     0.00     0  00:00        0.00
  c_132_vr_storage_5   STORAGE      0.00     0.00     0.00     0  00:00        0.00
  Aalst_gemaal         STORAGE      0.29     0.67     0.67     0  00:15        0.67
  pre_ontvangstkelder  STORAGE      1.62     1.98    -8.52     0  00:14        1.98
  c_150_vr_storage_57  STORAGE      0.00     0.00     0.00     0  00:00        0.00
  c_123_vr_storage_40  STORAGE      0.00     0.00     0.00     0  00:00        0.00
  c_143_vr_storage_70  STORAGE      0.00     0.00     0.00     0  00:00        0.00
  c_147_vr_storage_4   STORAGE      0.00     0.00     0.00     0  00:00        0.00
  c_160_vr_storage_8   STORAGE      0.00     0.00     0.00     0  00:00        0.00
  c_145_vr_storage_4   STORAGE      0.00     0.00     0.00     0  00:00        0.00
  c_144_vr_storage_19  STORAGE      0.00     0.00     0.00     0  00:00        0.00
  c_142_vr_storage_35  STORAGE      0.00     0.00     0.00     0  00:00        0.00
  c_148_vr_storage_12  STORAGE      0.00     0.00     0.00     0  00:00        0.00
  c_149_vr_storage_17  STORAGE      0.00     0.00     0.00     0  00:00        0.00
  c_151_vr_storage_22  STORAGE      0.00     0.00     0.00     0  00:00        0.00
  c_161_vr_storage_32  STORAGE      0.00     0.00     0.00     0  00:00        0.00
  c_138_vr_storage_22  STORAGE      0.00     0.00     0.00     0  00:00        0.00
  c_139_vr_storage_8   STORAGE      0.00     0.00     0.00     0  00:00        0.00
  c_137_vr_storage_4   STORAGE      0.00     0.00     0.00     0  00:00        0.00
  c_122_vr_storage_29  STORAGE      0.00     0.00     0.00     0  00:00        0.00
  c_121_vr_storage_12  STORAGE      0.00     0.00     0.00     0  00:00        0.00
  c_120_vr_storage_8   STORAGE      0.00     0.00     0.00     0  00:00        0.00
  c_119_vr_storage_80  STORAGE      0.00     0.00     0.00     0  00:00        0.00
  c_100_vr_storage_10  STORAGE      0.00     0.00     0.00     0  00:00        0.00
  c_118_vr_storage_13  STORAGE      0.00     0.00     0.00     0  00:00        0.00
  c_116_vr_storage_15  STORAGE      0.00     0.00     0.00     0  00:00        0.00
  c_114_vr_storage_10  STORAGE      0.00     0.00     0.00     0  00:00        0.00
  c_112_vr_storage_21  STORAGE      0.00     0.00     0.00     0  00:00        0.00
  c_107_vr_storage_36  STORAGE      0.00     0.00     0.00     0  00:00        0.00
  c_107_2_vr_storage_12 STORAGE      0.00     0.00     0.00     0  00:00        0.00
  c_106_vr_storage_13  STORAGE      0.00     0.00     0.00     0  00:00        0.00
  c_99_vr_storage_41   STORAGE      0.00     0.00     0.00     0  00:00        0.00
  c_103_vr_storage_8   STORAGE      0.00     0.00     0.00     0  00:00        0.00
  c_98_vr_storage_20   STORAGE      0.00     0.00     0.00     0  00:00        0.00
  gb127                STORAGE      0.00     0.00     0.00     0  00:00        0.00
  c_123                STORAGE      0.00     0.00     0.00     0  00:00        0.00
  c_122                STORAGE      0.00     0.00     0.00     0  00:00        0.00
  c_112                STORAGE      0.00     0.00     0.00     0  00:00        0.00
  c_99                 STORAGE      0.00     0.00     0.00     0  00:00        0.00
  c_119_1              STORAGE      2.54     2.93     2.93     0  00:05        2.92
  c_119_2              STORAGE      2.45     2.91     2.91     0  00:05        2.90
  c_119_3              STORAGE      2.41     2.89     2.89     0  00:05        2.88
  
  
  *******************
  Node Inflow Summary
  *******************
  
  -------------------------------------------------------------------------------------------------
                                  Maximum  Maximum                  Lateral       Total        Flow
                                  Lateral    Total  Time of Max      Inflow      Inflow     Balance
                                   Inflow   Inflow   Occurrence      Volume      Volume       Error
  Node                 Type           CMS      CMS  days hr:min    10^6 ltr    10^6 ltr     Percent
  -------------------------------------------------------------------------------------------------
  Nod_100              JUNCTION     0.000   10.019     0  00:00           0        3.11       0.000
  Nod_890              JUNCTION     0.000    0.690     0  00:30           0       0.557      70.692
  Nod_891              JUNCTION     0.000    0.439     0  00:28           0       0.282      73.216
  Nod_892              JUNCTION     0.000    0.260     0  00:30           0       0.126      56.580
  Nod_A*HLCMRZ1135     JUNCTION     0.000    0.317     0  00:00           0       0.061     173.940
  Nod_103              JUNCTION     0.000    0.817     0  00:05           0        0.65      22.973
  Nod_104              JUNCTION     0.000    0.372     0  00:11           0       0.553      19.123
  Nod_105              JUNCTION     0.000    0.320     0  00:16           0        0.45       7.208
  Nod_106              JUNCTION     0.000    0.315     0  00:00           0       0.398       0.000
  Nod_107              JUNCTION     0.000    0.295     0  00:22           0       0.379      30.428
  Nod_108              JUNCTION     0.000    0.197     0  00:30           0       0.293      31.273
  Nod_109              JUNCTION     0.000    0.177     0  00:30           0       0.223     -51.295
  Nod_110              JUNCTION     0.000    1.774     0  00:20           0        1.86      17.171
  Nod_111              JUNCTION     0.000    1.638     0  00:23           0        1.59      69.604
  Nod_112              JUNCTION     0.000    1.382     0  00:30           0        1.05      21.314
  Nod_113              JUNCTION     0.000    0.587     0  00:27           0       0.369     143.547
  Nod_114              JUNCTION     0.000    0.322     0  00:30           0      0.0991     -62.296
  Nod_115              JUNCTION     0.000    0.492     0  00:00           0       0.263      -3.369
  Nod_116              JUNCTION     0.000    0.458     0  00:01           0       0.272     -15.190
  Nod_117              JUNCTION     0.000    0.261     0  00:06           0       0.321      -9.727
  Nod_118              JUNCTION     0.000    0.217     0  00:12           0       0.355      -2.329
  Nod_119              JUNCTION     0.000    0.981     0  00:01           0       0.453      -0.943
  Nod_120              JUNCTION     0.000    0.691     0  00:02           0       0.458      -2.211
  Nod_121              JUNCTION     0.000    0.532     0  00:04           0       0.468      -1.295
  Nod_122              JUNCTION     0.000    0.424     0  00:07           0       0.474       1.168
  Nod_123              JUNCTION     0.000    0.784     0  00:08           0       0.978       1.817
  Nod_124              JUNCTION     0.000    0.763     0  00:10           0       0.961      -2.103
  Nod_126              JUNCTION     0.000    1.903     0  00:00           0        1.57      12.134
  Nod_127              JUNCTION     0.000    2.100     0  00:05           0        2.14      54.813
  Nod_128              JUNCTION     0.000    1.342     0  00:30           0        1.38     -14.001
  Nod_129              JUNCTION     0.000    3.395     0  00:04           0        1.98      11.551
  Nod_130              JUNCTION     0.000   10.805     0  00:00           0        4.85       1.068
  Nod_131              JUNCTION     0.000    9.744     0  00:01           0        4.22       6.974
  Nod_132              JUNCTION     0.000    7.133     0  00:05           0        3.95       7.475
  Nod_133              JUNCTION     0.000    5.318     0  00:05           0        3.67       7.380
  Nod_134              JUNCTION     0.000    4.520     0  00:06           0        3.42       9.449
  Nod_135              JUNCTION     0.000    3.567     0  00:07           0        3.12       7.765
  Nod_136              JUNCTION     0.000    3.269     0  00:09           0         2.9      56.040
  Nod_222              JUNCTION     0.000    0.256     0  00:03           0       0.371      65.319
  Nod_233              JUNCTION     0.000    0.345     0  00:00           0       0.225     -55.129
  Nod_244              JUNCTION     0.000    0.911     0  00:01           0       0.493      -0.654
  Nod_266              JUNCTION     0.000    0.680     0  00:02           0       0.496      -1.703
  Nod_277              JUNCTION     0.000    0.523     0  00:05           0       0.505      -0.938
  J1                   JUNCTION     0.000    0.106     0  00:00           0       0.157     -97.440
  J119                 JUNCTION     0.000    0.006     0  00:00           0      0.0114     -99.874
  cso_Geldrop          OUTFALL      0.000    0.000     0  00:00           0           0       0.000 ltr
  cso_gb_136           OUTFALL      0.000    0.000     0  00:00           0           0       0.000 ltr
  cso_RZ               OUTFALL      0.000    0.000     0  00:00           0           0       0.000 ltr
  cso_ES_1             OUTFALL      0.000    0.000     0  00:00           0           0       0.000 ltr
  cso_AALST            OUTFALL      0.000    0.000     0  00:00           0           0       0.000 ltr
  out_ES               OUTFALL      0.000    0.000     0  00:00           0           0       0.000 ltr
  out_RZ               OUTFALL      0.000    0.701     0  00:14           0       0.971       0.000
  cso_gb127            OUTFALL      0.000    0.000     0  00:00           0           0       0.000 ltr
  cso_c_122            OUTFALL      0.000    0.000     0  00:00           0           0       0.000 ltr
  cso_c_119_1          OUTFALL      0.000    0.000     0  00:00           0           0       0.000 ltr
  cso_c_112            OUTFALL      0.000    0.000     0  00:00           0           0       0.000 ltr
  cso_c_99             OUTFALL      0.000    0.000     0  00:00           0           0       0.000 ltr
  cso_c_123            OUTFALL      0.000    0.000     0  00:00           0           0       0.000 ltr
  cso_c_119_2          OUTFALL      0.000    0.000     0  00:00           0           0       0.000 ltr
  cso_c_119_3          OUTFALL      0.000    0.000     0  00:00           0           0       0.000 ltr
  c_24_vr_storage_5    STORAGE      0.227    0.227     0  00:00       0.408       0.409       0.000
  c_23_vr_storage_7    STORAGE      0.000    0.000     0  00:00     0.00018     0.00018       0.000
  c_22_vr_storage_5    STORAGE      0.000    0.000     0  00:00           0           0       0.000 ltr
  c_21_vr_storage_7    STORAGE      0.000    0.000     0  00:00    0.000169    0.000169       0.000
  c_12_vr_storage_8    STORAGE      0.000    0.000     0  00:00    0.000281    0.000281       0.000
  c_20_vr_storage_13   STORAGE      0.000    0.000     0  00:00           0           0       0.000 ltr
  c_19_vr_storage_7    STORAGE      0.000    0.000     0  00:00    0.000135    0.000135       0.000
  c_10_vr_storage_10   STORAGE      0.000    0.000     0  00:00           0           0       0.000 ltr
  c_16_vr_storage_20   STORAGE      0.000    0.000     0  00:00           0           0       0.000 ltr
  c_15_vr_storage_24   STORAGE      0.000    0.000     0  00:00    0.000198    0.000198       0.000
  c_14_vr_storage_24   STORAGE      0.000    0.000     0  00:00           0           0       0.000 ltr
  pipe_ES              STORAGE      0.000    0.228     0  00:00           0       0.409       0.011
  pipe_Geldrop         STORAGE      0.000    0.106     0  00:00           0       0.157       0.000
  gb_136               STORAGE      0.000    0.019     0  00:00           0      0.0337       0.000
  c_129_vr_storage_5   STORAGE      0.000    0.000     0  00:00           0           0       0.000 ltr
  c_128_vr_storage_5   STORAGE      0.063    0.098     0  00:00       0.113       0.157       0.000
  c_1285_vr_storage_5  STORAGE      0.000    0.000     0  00:00    0.000166    0.000166       0.000
  c_127_vr_storage_5   STORAGE      0.002    0.025     0  00:00     0.00287      0.0447       0.000
  c_126_vr_storage_5   STORAGE      0.023    0.023     0  00:00      0.0417      0.0418       0.000
  c_125_vr_storage_5   STORAGE      0.000    0.000     0  00:00    0.000112    0.000112       0.000
  c_124_storage        STORAGE      0.001    0.014     0  00:20     0.00152      0.0157       0.012
  c_136_vr_storage_5   STORAGE      0.017    0.019     0  00:00      0.0307      0.0337       0.000
  c_135_vr_storage_5   STORAGE      0.001    0.001     0  00:00     0.00111     0.00111       0.000
  c_131_vr_storage_5   STORAGE      0.001    0.001     0  00:00     0.00105     0.00137       0.000
  c_130_vr_storage_5   STORAGE      0.000    0.000     0  00:00     0.00032     0.00032       0.000
  c_134_vr_storage_5   STORAGE      0.000    0.000     0  00:00    0.000238    0.000238       0.000
  c_132_vr_storage_5   STORAGE      0.000    0.000     0  00:00    0.000234    0.000234       0.000
  Aalst_gemaal         STORAGE      0.000    1.169     0  00:00           0        2.08      -1.311
  pre_ontvangstkelder  STORAGE      0.000    1.244     0  00:00           0       0.981      -0.282
  c_150_vr_storage_57  STORAGE      0.011    0.011     0  00:00      0.0205      0.0205       0.000
  c_123_vr_storage_40  STORAGE      0.002    0.002     0  00:00     0.00338     0.00338       0.000
  c_143_vr_storage_70  STORAGE      0.017    0.031     0  00:00      0.0301      0.0547       0.000
  c_147_vr_storage_4   STORAGE      0.000    0.000     0  00:00           0           0       0.000 ltr
  c_160_vr_storage_8   STORAGE      0.010    0.010     0  00:00      0.0183      0.0183       0.000
  c_145_vr_storage_4   STORAGE      0.000    0.000     0  00:00    0.000241    0.000241       0.000
  c_144_vr_storage_19  STORAGE      0.000    0.000     0  00:00    0.000601    0.000601       0.000
  c_142_vr_storage_35  STORAGE      0.002    0.002     0  00:00     0.00292     0.00292       0.000
  c_148_vr_storage_12  STORAGE      0.000    0.000     0  00:00    0.000324    0.000324       0.000
  c_149_vr_storage_17  STORAGE      0.000    0.000     0  00:00           0           0       0.000 ltr
  c_151_vr_storage_22  STORAGE      0.000    0.000     0  00:00    0.000245    0.000245       0.000
  c_161_vr_storage_32  STORAGE      0.000    0.000     0  00:00           0           0       0.000 ltr
  c_138_vr_storage_22  STORAGE      0.001    0.001     0  00:00     0.00136     0.00197       0.000
  c_139_vr_storage_8   STORAGE      0.000    0.000     0  00:00           0           0       0.000 ltr
  c_137_vr_storage_4   STORAGE      0.000    0.000     0  00:00    0.000615    0.000615       0.000
  c_122_vr_storage_29  STORAGE      0.001    0.001     0  00:00     0.00174     0.00174       0.000
  c_121_vr_storage_12  STORAGE      0.007    0.007     0  00:00      0.0126      0.0131       0.000
  c_120_vr_storage_8   STORAGE      0.000    0.000     0  00:00    0.000428    0.000428       0.000
  c_119_vr_storage_80  STORAGE      0.006    0.006     0  00:00      0.0112      0.0114       0.000
  c_100_vr_storage_10  STORAGE      0.000    0.000     0  00:00    0.000238    0.000238       0.000
  c_118_vr_storage_13  STORAGE      0.000    0.000     0  00:00           0           0       0.000 ltr
  c_116_vr_storage_15  STORAGE      0.000    0.000     0  00:00    0.000486    0.000741       0.000
  c_114_vr_storage_10  STORAGE      0.000    0.000     0  00:00    0.000256    0.000256       0.000
  c_112_vr_storage_21  STORAGE      0.000    0.000     0  00:00    0.000644    0.000644       0.000
  c_107_vr_storage_36  STORAGE      0.119    0.130     0  00:00       0.215       0.235       0.000
  c_107_2_vr_storage_12 STORAGE      0.000    0.000     0  00:00    0.000489    0.000489       0.000
  c_106_vr_storage_13  STORAGE      0.011    0.011     0  00:00      0.0193      0.0193       0.000
  c_99_vr_storage_41   STORAGE      0.001    0.002     0  00:00     0.00258      0.0028       0.000
  c_103_vr_storage_8   STORAGE      0.000    0.000     0  00:00    0.000223    0.000223       0.000
  c_98_vr_storage_20   STORAGE      0.001    0.001     0  00:00    0.000986    0.000986       0.000
  gb127                STORAGE      0.000    0.036     0  00:00           0      0.0446       0.000
  c_123                STORAGE      0.000    0.002     0  00:00           0     0.00338       0.000
  c_122                STORAGE      0.000    0.001     0  00:00           0     0.00174       0.000
  c_112                STORAGE      0.000    0.000     0  00:00           0    0.000644       0.000
  c_99                 STORAGE      0.000    0.002     0  00:00           0      0.0028       0.000
  c_119_1              STORAGE      0.000   10.000     0  00:00           0        3.01       0.010
  c_119_2              STORAGE      0.000   10.000     0  00:00           0        3.01       0.009
  c_119_3              STORAGE      0.000   10.000     0  00:00           0        3.01       0.009
  
  
  **********************
  Node Surcharge Summary
  **********************
  
  Surcharging occurs when water rises above the top of the highest conduit.
  ---------------------------------------------------------------------
                                               Max. Height   Min. Depth
                                   Hours       Above Crown    Below Rim
  Node                 Type      Surcharged         Meters       Meters
  ---------------------------------------------------------------------
  Nod_100              JUNCTION        0.09          1.750        0.000
  J1                   JUNCTION        0.50          0.000        4.000
  J119                 JUNCTION        0.50          0.000    99999999.000
  
  
  *********************
  Node Flooding Summary
  *********************
  
  Flooding refers to all water that overflows a node, whether it ponds or not.
  --------------------------------------------------------------------------
                                                             Total   Maximum
                                 Maximum   Time of Max       Flood    Ponded
                        Hours       Rate    Occurrence      Volume     Depth
  Node                 Flooded       CMS   days hr:min    10^6 ltr    Meters
  --------------------------------------------------------------------------
  Nod_100                 0.08     9.992      0  00:00       2.784     0.000
  
  
  **********************
  Storage Volume Summary
  **********************
  
  ------------------------------------------------------------------------------------------------
                         Average    Avg   Evap  Exfil     Maximum    Max    Time of Max    Maximum
                          Volume   Pcnt   Pcnt   Pcnt      Volume   Pcnt     Occurrence    Outflow
  Storage Unit           1000 m³   Full   Loss   Loss     1000 m³   Full    days hr:min        CMS
  ------------------------------------------------------------------------------------------------
  c_24_vr_storage_5        0.000    0.0    0.0    0.0       0.000    0.0       0  00:00      0.228
  c_23_vr_storage_7        0.000    0.0    0.0    0.0       0.000    0.0       0  00:00      0.000
  c_22_vr_storage_5        0.000    0.0    0.0    0.0       0.000    0.0       0  00:00      0.000
  c_21_vr_storage_7        0.000    0.0    0.0    0.0       0.000    0.0       0  00:00      0.000
  c_12_vr_storage_8        0.000    0.0    0.0    0.0       0.000    0.0       0  00:00      0.000
  c_20_vr_storage_13       0.000    0.0    0.0    0.0       0.000    0.0       0  00:00      0.000
  c_19_vr_storage_7        0.000    0.0    0.0    0.0       0.000    0.0       0  00:00      0.000
  c_10_vr_storage_10       0.000    0.0    0.0    0.0       0.000    0.0       0  00:00      0.000
  c_16_vr_storage_20       0.000    0.0    0.0    0.0       0.000    0.0       0  00:00      0.000
  c_15_vr_storage_24       0.000    0.0    0.0    0.0       0.000    0.0       0  00:00      0.000
  c_14_vr_storage_24       0.000    0.0    0.0    0.0       0.000    0.0       0  00:00      0.000
  pipe_ES                  0.205    0.1    0.0    0.0       0.409    0.2       0  00:30      0.000
  pipe_Geldrop             0.000    0.0    0.0    0.0       0.000    0.0       0  00:00      0.106
  gb_136                   0.000    0.0    0.0    0.0       0.000    0.0       0  00:00      0.019
  c_129_vr_storage_5       0.000    0.0    0.0    0.0       0.000    0.0       0  00:00      0.000
  c_128_vr_storage_5       0.000    0.0    0.0    0.0       0.000    0.0       0  00:00      0.106
  c_1285_vr_storage_5      0.000    0.0    0.0    0.0       0.000    0.0       0  00:00      0.000
  c_127_vr_storage_5       0.000    0.0    0.0    0.0       0.000    0.0       0  00:00      0.036
  c_126_vr_storage_5       0.000    0.0    0.0    0.0       0.000    0.0       0  00:00      0.023
  c_125_vr_storage_5       0.000    0.0    0.0    0.0       0.000    0.0       0  00:00      0.000
  c_124_storage            0.005    0.0    0.0    0.0       0.016    0.0       0  00:30      0.000
  c_136_vr_storage_5       0.000    0.0    0.0    0.0       0.000    0.0       0  00:00      0.019
  c_135_vr_storage_5       0.000    0.0    0.0    0.0       0.000    0.0       0  00:00      0.001
  c_131_vr_storage_5       0.000    0.0    0.0    0.0       0.000    0.0       0  00:00      0.001
  c_130_vr_storage_5       0.000    0.0    0.0    0.0       0.000    0.0       0  00:00      0.000
  c_134_vr_storage_5       0.000    0.0    0.0    0.0       0.000    0.0       0  00:00      0.000
  c_132_vr_storage_5       0.000    0.0    0.0    0.0       0.000    0.0       0  00:00      0.000
  Aalst_gemaal             0.086    0.1    0.0    0.0       0.200    0.1       0  00:15      2.100
  pre_ontvangstkelder      0.016    5.6    0.0    0.0       0.020    6.8       0  00:14      0.701
  c_150_vr_storage_57      0.000    0.0    0.0    0.0       0.000    0.0       0  00:00      0.011
  c_123_vr_storage_40      0.000    0.0    0.0    0.0       0.000    0.0       0  00:00      0.002
  c_143_vr_storage_70      0.000    0.0    0.0    0.0       0.000    0.0       0  00:00      0.037
  c_147_vr_storage_4       0.000    0.0    0.0    0.0       0.000    0.0       0  00:00      0.000
  c_160_vr_storage_8       0.000    0.0    0.0    0.0       0.000    0.0       0  00:00      0.010
  c_145_vr_storage_4       0.000    0.0    0.0    0.0       0.000    0.0       0  00:00      0.000
  c_144_vr_storage_19      0.000    0.0    0.0    0.0       0.000    0.0       0  00:00      0.000
  c_142_vr_storage_35      0.000    0.0    0.0    0.0       0.000    0.0       0  00:00      0.002
  c_148_vr_storage_12      0.000    0.0    0.0    0.0       0.000    0.0       0  00:00      0.000
  c_149_vr_storage_17      0.000    0.0    0.0    0.0       0.000    0.0       0  00:00      0.000
  c_151_vr_storage_22      0.000    0.0    0.0    0.0       0.000    0.0       0  00:00      0.000
  c_161_vr_storage_32      0.000    0.0    0.0    0.0       0.000    0.0       0  00:00      0.000
  c_138_vr_storage_22      0.000    0.0    0.0    0.0       0.000    0.0       0  00:00      0.001
  c_139_vr_storage_8       0.000    0.0    0.0    0.0       0.000    0.0       0  00:00      0.000
  c_137_vr_storage_4       0.000    0.0    0.0    0.0       0.000    0.0       0  00:00      0.000
  c_122_vr_storage_29      0.000    0.0    0.0    0.0       0.000    0.0       0  00:00      0.001
  c_121_vr_storage_12      0.000    0.0    0.0    0.0       0.000    0.0       0  00:00      0.007
  c_120_vr_storage_8       0.000    0.0    0.0    0.0       0.000    0.0       0  00:00      0.000
  c_119_vr_storage_80      0.000    0.0    0.0    0.0       0.000    0.0       0  00:00      0.006
  c_100_vr_storage_10      0.000    0.0    0.0    0.0       0.000    0.0       0  00:00      0.000
  c_118_vr_storage_13      0.000    0.0    0.0    0.0       0.000    0.0       0  00:00      0.000
  c_116_vr_storage_15      0.000    0.0    0.0    0.0       0.000    0.0       0  00:00      0.000
  c_114_vr_storage_10      0.000    0.0    0.0    0.0       0.000    0.0       0  00:00      0.000
  c_112_vr_storage_21      0.000    0.0    0.0    0.0       0.000    0.0       0  00:00      0.000
  c_107_vr_storage_36      0.000    0.0    0.0    0.0       0.000    0.0       0  00:00      0.136
  c_107_2_vr_storage_12     0.000    0.0    0.0    0.0       0.000    0.0       0  00:00      0.000
  c_106_vr_storage_13      0.000    0.0    0.0    0.0       0.000    0.0       0  00:00      0.011
  c_99_vr_storage_41       0.000    0.0    0.0    0.0       0.000    0.0       0  00:00      0.002
  c_103_vr_storage_8       0.000    0.0    0.0    0.0       0.000    0.0       0  00:00      0.000
  c_98_vr_storage_20       0.000    0.0    0.0    0.0       0.000    0.0       0  00:00      0.001
  gb127                    0.000    0.0    0.0    0.0       0.000    0.0       0  00:00      0.036
  c_123                    0.000    0.0    0.0    0.0       0.000    0.0       0  00:00      0.002
  c_122                    0.000    0.0    0.0    0.0       0.000    0.0       0  00:00      0.001
  c_112                    0.000    0.0    0.0    0.0       0.000    0.0       0  00:00      0.000
  c_99                     0.000    0.0    0.0    0.0       0.000    0.0       0  00:00      0.002
  c_119_1                  2.538   25.4    0.0    0.0       2.934   29.3       0  00:05      0.243
  c_119_2                  2.451   24.5    0.0    0.0       2.905   29.1       0  00:05      0.340
  c_119_3                  2.407   12.0    0.0    0.0       2.890   14.5       0  00:05      0.389
  
  
  ***********************
  Outfall Loading Summary
  ***********************
  
  -----------------------------------------------------------
                         Flow       Avg       Max       Total
                         Freq      Flow      Flow      Volume
  Outfall Node           Pcnt       CMS       CMS    10^6 ltr
  -----------------------------------------------------------
  cso_Geldrop            0.00     0.000     0.000       0.000
  cso_gb_136             0.00     0.000     0.000       0.000
  cso_RZ                 0.00     0.000     0.000       0.000
  cso_ES_1               0.00     0.000     0.000       0.000
  cso_AALST              0.00     0.000     0.000       0.000
  out_ES                 0.00     0.000     0.000       0.000
  out_RZ               100.00     0.539     0.701       0.971
  cso_gb127              0.00     0.000     0.000       0.000
  cso_c_122              0.00     0.000     0.000       0.000
  cso_c_119_1            0.00     0.000     0.000       0.000
  cso_c_112              0.00     0.000     0.000       0.000
  cso_c_99               0.00     0.000     0.000       0.000
  cso_c_123              0.00     0.000     0.000       0.000
  cso_c_119_2            0.00     0.000     0.000       0.000
  cso_c_119_3            0.00     0.000     0.000       0.000
  -----------------------------------------------------------
  System                 6.67     0.539     0.701       0.971
  
  
  ********************
  Link Flow Summary
  ********************
  
  -----------------------------------------------------------------------------
                                 Maximum  Time of Max   Maximum    Max/    Max/
                                  |Flow|   Occurrence   |Veloc|    Full    Full
  Link                 Type          CMS  days hr:min     m/sec    Flow   Depth
  -----------------------------------------------------------------------------
  Con_158              CONDUIT     0.439     0  00:28      0.90    0.01    0.19
  Con_159              CONDUIT     0.260     0  00:30      0.40    0.04    0.16
  Con_160              CONDUIT     0.317     0  00:00      1.04    0.02    0.20
  Con_101              CONDUIT     0.817     0  00:05      0.91    2.54    0.72
  Con_102              CONDUIT     0.372     0  00:11      0.64    0.81    0.52
  Con_103              CONDUIT     0.309     0  00:19      0.62    0.41    0.45
  Con_104              CONDUIT     0.320     0  00:16      1.51    0.32    0.44
  Con_105              CONDUIT     0.295     0  00:22      0.61    0.63    0.45
  Con_106              CONDUIT     0.197     0  00:30      0.62    0.26    0.32
  Con_107              CONDUIT     0.177     0  00:30      0.53    0.04    0.19
  Con_108              CONDUIT     0.981     0  00:01      1.30    0.22    0.21
  Con_109              CONDUIT     1.638     0  00:23      1.09    0.28    0.31
  Con_110              CONDUIT     1.382     0  00:30      1.11    0.21    0.22
  Con_157              CONDUIT     0.690     0  00:30      0.91    0.02    0.23
  Con_111              CONDUIT     0.587     0  00:27      0.63    0.10    0.26
  Con_112              CONDUIT     0.322     0  00:30      0.62    0.04    0.09
  Con_113              CONDUIT     0.492     0  00:00      0.90    0.11    0.15
  Con_114              CONDUIT     0.458     0  00:01      0.97    0.12    0.13
  Con_115              CONDUIT     0.261     0  00:06      0.62    0.06    0.12
  Con_116              CONDUIT     0.217     0  00:12      0.57    0.05    0.10
  Con_117              CONDUIT     0.223     0  00:00      0.37    0.01    0.27
  Con_118              CONDUIT     0.691     0  00:02      1.08    0.18    0.18
  Con_119              CONDUIT     0.532     0  00:04      0.87    0.11    0.15
  Con_120              CONDUIT     0.424     0  00:07      0.71    0.09    0.15
  Con_121              CONDUIT     0.366     0  00:10      0.57    0.07    0.16
  Con_122              CONDUIT     0.763     0  00:10      1.84    0.16    0.10
  Con_123              CONDUIT     1.244     0  00:00      6.59    0.01    0.15
  Con_125              CONDUIT     0.858     0  00:30      0.75    0.37    0.49
  Con_126              CONDUIT     1.342     0  00:30      0.91    0.92    0.51
  Con_127              CONDUIT     1.903     0  00:00      1.72    0.30    0.40
  Con_128              CONDUIT     2.554     0  00:04      1.45    1.07    0.70
  Con_129              CONDUIT     9.744     0  00:01      4.13    1.27    0.88
  Con_130              CONDUIT     7.133     0  00:05      1.83    1.50    0.72
  Con_140              CONDUIT     5.318     0  00:05      2.11    1.00    0.65
  Con_141              CONDUIT     4.520     0  00:06      1.59    0.95    0.52
  Con_142              CONDUIT     3.567     0  00:07      1.58    0.75    0.49
  Con_143              CONDUIT     3.269     0  00:09      1.74    0.68    0.44
  Con_144              CONDUIT     1.774     0  00:20      0.96    0.48    0.34
  Con_152              CONDUIT     0.345     0  00:00      0.49    0.13    0.20
  Con_153              CONDUIT     0.911     0  00:01      1.01    0.32    0.27
  Con_154              CONDUIT     0.680     0  00:02      0.85    0.27    0.23
  Con_155              CONDUIT     0.523     0  00:05      0.70    0.16    0.19
  Con_156              CONDUIT     0.423     0  00:08      0.61    0.11    0.17
  eeneind_out          CONDUIT     0.014     0  00:20      0.55    0.15    0.50
  P_c_24_d_5           PUMP        0.228     0  00:00              0.02
  P_c_23_d_7           PUMP        0.000     0  00:00              0.00
  P_c_22_d_5           PUMP        0.000     0  00:00              0.00
  P_c_21_d_7           PUMP        0.000     0  00:00              0.00
  P_c_12_d_8           PUMP        0.000     0  00:00              0.00
  P_c_20_d_13          PUMP        0.000     0  00:00              0.00
  P_c_19_d_7           PUMP        0.000     0  00:00              0.00
  P_c_10_d_10          PUMP        0.000     0  00:00              0.00
  P_c_16_d_20          PUMP        0.000     0  00:00              0.00
  P_c_15_d_24          PUMP        0.000     0  00:00              0.00
  P_c_14_d_24          PUMP        0.000     0  00:00              0.00
  P_c_129_d_5          PUMP        0.000     0  00:00              0.00
  P_c_128_d_5          PUMP        0.106     0  00:00              0.01
  P_c_1285_d_5         PUMP        0.000     0  00:00              0.00
  P_c_127_d_5          PUMP        0.036     0  00:00              0.00
  P_c_126_d_5          PUMP        0.023     0  00:00              0.00
  P_c_125_d_5          PUMP        0.000     0  00:00              0.00
  P_c_136_d_5          PUMP        0.019     0  00:00              0.00
  P_c_135_d_5          PUMP        0.001     0  00:00              0.00
  P_c_131_d_5          PUMP        0.001     0  00:00              0.00
  P_c_130_d_5          PUMP        0.000     0  00:00              0.00
  P_c_134_d_5          PUMP        0.000     0  00:00              0.00
  P_c_132_d_5          PUMP        0.000     0  00:00              0.00
  Con_1119.1           PUMP        0.019     0  00:00              0.10
  P_riool_zuid_out     PUMP        0.701     0  00:14              0.15
  P_eindhoven_out      PUMP        0.000     0  00:00              0.00
  P_c_150_d_57         PUMP        0.011     0  00:00              0.00
  P_c_123_d_40         PUMP        0.002     0  00:00              0.00
  P_c_143_d_70         PUMP        0.037     0  00:00              0.00
  P_c_147_d_4          PUMP        0.000     0  00:00              0.00
  P_c_160_d_8          PUMP        0.010     0  00:00              0.00
  P_c_145_d_4          PUMP        0.000     0  00:00              0.00
  P_c_144_d_19         PUMP        0.000     0  00:00              0.00
  P_c_142_d_35         PUMP        0.002     0  00:00              0.00
  P_c_148_d_12         PUMP        0.000     0  00:00              0.00
  P_c_149_d_17         PUMP        0.000     0  00:00              0.00
  P_c_151_d_22         PUMP        0.000     0  00:00              0.00
  P_c_161_d_32         PUMP        0.000     0  00:00              0.00
  P_c_138_d_22         PUMP        0.001     0  00:00              0.00
  P_c_139_d_8          PUMP        0.000     0  00:00              0.00
  P_c_137_d_4          PUMP        0.000     0  00:00              0.00
  P_c_122_d_29         PUMP        0.001     0  00:00              0.00
  P_c_121_d_12         PUMP        0.007     0  00:00              0.00
  P_c_120_d_8          PUMP        0.000     0  00:00              0.00
  P_c_119_d_80         PUMP        0.006     0  00:00              0.00
  P_c_100_d_10         PUMP        0.000     0  00:00              0.00
  P_c_118_d_13         PUMP        0.000     0  00:00              0.00
  P_c_116_d_15         PUMP        0.000     0  00:00              0.00
  P_c_114_d_10         PUMP        0.000     0  00:00              0.00
  P_c_112_d_21         PUMP        0.000     0  00:00              0.00
  P_c_107_d_36         PUMP        0.136     0  00:00              0.01
  P_c_107_2_d_12       PUMP        0.000     0  00:00              0.00
  P_c_106_d_13         PUMP        0.011     0  00:00              0.00
  P_c_99_d_41          PUMP        0.002     0  00:00              0.00
  P_c_103_d_8          PUMP        0.000     0  00:00              0.00
  P_c_98_d_20          PUMP        0.001     0  00:00              0.00
  P_aalst_1            PUMP        0.560     0  00:05              1.00
  P_aalst_2            PUMP        0.560     0  00:05              1.00
  P_aalst_3            PUMP        0.490     0  00:05              1.00
  P_aalst_4            PUMP        0.490     0  00:00              1.00
  P_pipe_Geldrop       PUMP        0.106     0  00:00              0.13
  P_gb127              PUMP        0.036     0  00:00              0.11
  P_c_99               PUMP        0.002     0  00:00              0.00
  P_c_112              PUMP        0.000     0  00:00              0.01
  P_c_119_1            PUMP        0.243     0  00:00              1.00
  P_c_122              PUMP        0.001     0  00:00              0.03
  P_c_123              PUMP        0.002     0  00:00              0.01
  P_c_119_2            PUMP        0.340     0  00:00              1.00
  P_c_119_3            PUMP        0.389     0  00:00              1.00
  P_c_119_fr_040       PUMP       10.000     0  00:00              1.00
  P_c_119_fr_028       PUMP       10.000     0  00:00              1.00
  P_c_119_fr_032       PUMP       10.000     0  00:00              1.00
  P_geldrop_split_1    PUMP       10.000     0  00:00              1.00
  P_geldrop_split_2    PUMP       10.000     0  00:00              1.00
  weir_gb_136          WEIR        0.000     0  00:00                      0.00
  Con_A*HLCMRZ1135.1   WEIR        0.000     0  00:00                      0.00
  weir_ES              WEIR        0.000     0  00:00                      0.00
  Aalst_weir           WEIR        0.000     0  00:00                      0.00
  weir_gb127           WEIR        0.000     0  00:00                      0.00
  weir_pipe_Geldrop    WEIR        0.000     0  00:00                      0.00
  weir_c_123           WEIR        0.000     0  00:00                      0.00
  weir_c_99            WEIR        0.000     0  00:00                      0.00
  weir_c_112           WEIR        0.000     0  00:00                      0.00
  weir_c_119_1         WEIR        0.000     0  00:00                      0.00
  weir_c_122           WEIR        0.000     0  00:00                      0.00
  weir_c_119_2         WEIR        0.000     0  00:00                      0.00
  weir_c_119_3         WEIR        0.000     0  00:00                      0.00
  
  
  ***************************
  Flow Classification Summary
  ***************************
  
  -------------------------------------------------------------------------------------
                      Adjusted    ---------- Fraction of Time in Flow Class ---------- 
                       /Actual         Up    Down  Sub   Sup   Up    Down  Norm  Inlet 
  Conduit               Length    Dry  Dry   Dry   Crit  Crit  Crit  Crit  Ltd   Ctrl  
  -------------------------------------------------------------------------------------
  Con_158                 1.00   0.00  0.00  0.00  1.00  0.00  0.00  0.00  0.03  0.00
  Con_159                 1.00   0.00  0.00  0.00  1.00  0.00  0.00  0.00  0.15  0.00
  Con_160                 1.00   0.00  0.00  0.00  1.00  0.00  0.00  0.00  0.04  0.00
  Con_101                 1.00   0.00  0.00  0.00  0.88  0.00  0.00  0.12  0.00  0.00
  Con_102                 1.00   0.00  0.00  0.00  1.00  0.00  0.00  0.00  0.01  0.00
  Con_103                 1.00   0.00  0.00  0.00  1.00  0.00  0.00  0.00  0.12  0.00
  Con_104                 1.00   0.00  0.00  0.00  0.98  0.02  0.00  0.00  0.00  0.00
  Con_105                 1.00   0.00  0.00  0.00  1.00  0.00  0.00  0.00  0.00  0.00
  Con_106                 1.00   0.00  0.00  0.00  0.00  0.00  0.00  1.00  0.00  0.00
  Con_107                 1.00   0.00  0.00  0.00  1.00  0.00  0.00  0.00  0.45  0.00
  Con_108                 1.00   0.00  0.00  0.00  1.00  0.00  0.00  0.00  0.02  0.00
  Con_109                 1.00   0.00  0.00  0.00  1.00  0.00  0.00  0.00  0.03  0.00
  Con_110                 1.00   0.00  0.00  0.00  0.00  0.00  0.00  1.00  0.00  0.00
  Con_157                 1.00   0.00  0.00  0.00  1.00  0.00  0.00  0.00  0.00  0.00
  Con_111                 1.00   0.00  0.00  0.00  1.00  0.00  0.00  0.00  0.00  0.00
  Con_112                 1.00   0.00  0.32  0.00  0.68  0.00  0.00  0.00  0.72  0.00
  Con_113                 1.00   0.00  0.00  0.00  1.00  0.00  0.00  0.00  0.05  0.00
  Con_114                 1.00   0.00  0.00  0.00  1.00  0.00  0.00  0.00  0.02  0.00
  Con_115                 1.00   0.00  0.00  0.00  1.00  0.00  0.00  0.00  0.66  0.00
  Con_116                 1.00   0.00  0.00  0.00  1.00  0.00  0.00  0.00  0.15  0.00
  Con_117                 1.00   0.00  0.00  0.00  1.00  0.00  0.00  0.00  0.90  0.00
  Con_118                 1.00   0.00  0.00  0.00  1.00  0.00  0.00  0.00  0.11  0.00
  Con_119                 1.00   0.00  0.00  0.00  1.00  0.00  0.00  0.00  0.61  0.00
  Con_120                 1.00   0.00  0.00  0.00  1.00  0.00  0.00  0.00  0.42  0.00
  Con_121                 1.00   0.00  0.00  0.00  1.00  0.00  0.00  0.00  0.01  0.00
  Con_122                 1.00   0.00  0.00  0.00  0.06  0.94  0.00  0.00  0.00  0.00
  Con_123                 1.00   0.00  0.00  0.00  0.30  0.33  0.00  0.37  0.62  0.00
  Con_125                 1.00   0.00  0.00  0.00  1.00  0.00  0.00  0.00  0.68  0.00
  Con_126                 1.00   0.00  0.00  0.00  1.00  0.00  0.00  0.00  0.00  0.00
  Con_127                 1.00   0.00  0.00  0.00  1.00  0.00  0.00  0.00  0.98  0.00
  Con_128                 1.00   0.00  0.00  0.00  0.24  0.00  0.00  0.76  0.01  0.00
  Con_129                 1.00   0.00  0.00  0.00  0.97  0.03  0.00  0.00  0.50  0.00
  Con_130                 1.00   0.00  0.00  0.00  1.00  0.00  0.00  0.00  0.02  0.00
  Con_140                 1.00   0.00  0.00  0.00  1.00  0.00  0.00  0.00  0.02  0.00
  Con_141                 1.00   0.00  0.00  0.00  1.00  0.00  0.00  0.00  0.03  0.00
  Con_142                 1.00   0.00  0.00  0.00  1.00  0.00  0.00  0.00  0.02  0.00
  Con_143                 1.00   0.00  0.00  0.00  1.00  0.00  0.00  0.00  0.03  0.00
  Con_144                 1.00   0.00  0.00  0.00  0.61  0.00  0.00  0.39  0.00  0.00
  Con_152                 1.00   0.00  0.00  0.00  0.92  0.00  0.08  0.00  0.39  0.00
  Con_153                 1.00   0.00  0.00  0.00  1.00  0.00  0.00  0.00  0.00  0.00
  Con_154                 1.00   0.00  0.00  0.00  1.00  0.00  0.00  0.00  0.10  0.00
  Con_155                 1.00   0.00  0.00  0.00  1.00  0.00  0.00  0.00  0.07  0.00
  Con_156                 1.00   0.00  0.00  0.00  1.00  0.00  0.00  0.00  0.70  0.00
  eeneind_out             1.00   0.00  0.31  0.00  0.69  0.00  0.00  0.00  0.00  0.00
  
  
  *************************
  Conduit Surcharge Summary
  *************************
  
  ----------------------------------------------------------------------------
                                                           Hours        Hours 
                         --------- Hours Full --------   Above Full   Capacity
  Conduit                Both Ends  Upstream  Dnstream   Normal Flow   Limited
  ----------------------------------------------------------------------------
  Con_101                     0.01      0.08      0.01      0.21         0.01
  Con_128                     0.01      0.01      0.01      0.03         0.01
  Con_129                     0.01      0.01      0.01      0.02         0.01
  Con_130                     0.01      0.01      0.01      0.06         0.01
  eeneind_out                 0.01      0.01      0.35      0.01         0.01
  
  
  ***************
  Pumping Summary
  ***************
  
  ---------------------------------------------------------------------------------------------------------
                                                  Min       Avg       Max     Total     Power    % Time Off
                        Percent   Number of      Flow      Flow      Flow    Volume     Usage    Pump Curve
  Pump                 Utilized   Start-Ups       CMS       CMS       CMS  10^6 ltr     Kw-hr    Low   High
  ---------------------------------------------------------------------------------------------------------
  P_c_24_d_5             100.00           1      0.00      0.23      0.23     0.409      0.00    0.0  100.0
  P_c_23_d_7             100.00           1      0.00      0.00      0.00     0.000      0.00    0.0  100.0
  P_c_22_d_5               0.00           0      0.00      0.00      0.00     0.000      0.00    0.0    0.0
  P_c_21_d_7             100.00           1      0.00      0.00      0.00     0.000      0.00    0.0  100.0
  P_c_12_d_8             100.00           1      0.00      0.00      0.00     0.000      0.00    0.0  100.0
  P_c_20_d_13              0.00           0      0.00      0.00      0.00     0.000      0.00    0.0    0.0
  P_c_19_d_7             100.00           1      0.00      0.00      0.00     0.000      0.00    0.0  100.0
  P_c_10_d_10              0.00           0      0.00      0.00      0.00     0.000      0.00    0.0    0.0
  P_c_16_d_20              0.00           0      0.00      0.00      0.00     0.000      0.00    0.0    0.0
  P_c_15_d_24            100.00           1      0.00      0.00      0.00     0.000      0.00    0.0  100.0
  P_c_14_d_24              0.00           0      0.00      0.00      0.00     0.000      0.00    0.0    0.0
  P_c_129_d_5              0.00           0      0.00      0.00      0.00     0.000      0.00    0.0    0.0
  P_c_128_d_5            100.00           1      0.00      0.09      0.11     0.157      6.45    0.0  100.0
  P_c_1285_d_5           100.00           1      0.00      0.00      0.00     0.000      0.00    0.0  100.0
  P_c_127_d_5            100.00           1      0.00      0.02      0.04     0.045      0.00    0.0    0.0
  P_c_126_d_5            100.00           1      0.00      0.02      0.02     0.042      0.00    0.0  100.0
  P_c_125_d_5            100.00           1      0.00      0.00      0.00     0.000      0.00    0.0  100.0
  P_c_136_d_5            100.00           1      0.00      0.02      0.02     0.034      1.51    0.0  100.0
  P_c_135_d_5            100.00           1      0.00      0.00      0.00     0.001      0.00    0.0  100.0
  P_c_131_d_5            100.00           1      0.00      0.00      0.00     0.001      0.00    0.0  100.0
  P_c_130_d_5            100.00           1      0.00      0.00      0.00     0.000      0.00    0.0  100.0
  P_c_134_d_5            100.00           1      0.00      0.00      0.00     0.000      0.00    0.0  100.0
  P_c_132_d_5            100.00           1      0.00      0.00      0.00     0.000      0.00    0.0  100.0
  Con_1119.1             100.00           1      0.00      0.02      0.02     0.034      0.10    0.0    0.0
  P_riool_zuid_out       100.00           1      0.00      0.54      0.70     0.971     23.30    0.0    0.0
  P_eindhoven_out          0.00           0      0.00      0.00      0.00     0.000      0.00    0.0    0.0
  P_c_150_d_57           100.00           1      0.00      0.01      0.01     0.021      0.02    0.0   93.4
  P_c_123_d_40           100.00           1      0.00      0.00      0.00     0.003      0.00    0.0    0.0
  P_c_143_d_70           100.00           1      0.00      0.03      0.04     0.055      0.04    0.0   93.4
  P_c_147_d_4              0.00           0      0.00      0.00      0.00     0.000      0.00    0.0    0.0
  P_c_160_d_8            100.00           1      0.00      0.01      0.01     0.018      0.00    0.0  100.0
  P_c_145_d_4            100.00           1      0.00      0.00      0.00     0.000      0.00    0.0  100.0
  P_c_144_d_19           100.00           1      0.00      0.00      0.00     0.001      0.00    0.0  100.0
  P_c_142_d_35           100.00           1      0.00      0.00      0.00     0.003      0.00    0.0  100.0
  P_c_148_d_12           100.00           1      0.00      0.00      0.00     0.000      0.00    0.0  100.0
  P_c_149_d_17             0.00           0      0.00      0.00      0.00     0.000      0.00    0.0    0.0
  P_c_151_d_22           100.00           1      0.00      0.00      0.00     0.000      0.00    0.0  100.0
  P_c_161_d_32             0.00           0      0.00      0.00      0.00     0.000      0.00    0.0    0.0
  P_c_138_d_22           100.00           1      0.00      0.00      0.00     0.002      0.00    0.0  100.0
  P_c_139_d_8              0.00           0      0.00      0.00      0.00     0.000      0.00    0.0    0.0
  P_c_137_d_4            100.00           1      0.00      0.00      0.00     0.001      0.00    0.0  100.0
  P_c_122_d_29           100.00           1      0.00      0.00      0.00     0.002      0.00    0.0    0.0
  P_c_121_d_12           100.00           1      0.00      0.01      0.01     0.013      0.01    0.0   93.4
  P_c_120_d_8            100.00           1      0.00      0.00      0.00     0.000      0.00    0.0  100.0
  P_c_119_d_80           100.00           1      0.00      0.01      0.01     0.011      0.00    0.0    0.0
  P_c_100_d_10           100.00           1      0.00      0.00      0.00     0.000      0.00    0.0  100.0
  P_c_118_d_13             0.00           0      0.00      0.00      0.00     0.000      0.00    0.0    0.0
  P_c_116_d_15           100.00           1      0.00      0.00      0.00     0.001      0.00    0.0   93.4
  P_c_114_d_10           100.00           1      0.00      0.00      0.00     0.000      0.00    0.0  100.0
  P_c_112_d_21           100.00           1      0.00      0.00      0.00     0.001      0.00    0.0    0.0
  P_c_107_d_36           100.00           1      0.00      0.13      0.14     0.235      0.18    0.0   93.4
  P_c_107_2_d_12         100.00           1      0.00      0.00      0.00     0.000      0.00    0.0  100.0
  P_c_106_d_13           100.00           1      0.00      0.01      0.01     0.019      0.00    0.0  100.0
  P_c_99_d_41            100.00           1      0.00      0.00      0.00     0.003      0.00    0.0    0.0
  P_c_103_d_8            100.00           1      0.00      0.00      0.00     0.000      0.00    0.0  100.0
  P_c_98_d_20            100.00           1      0.00      0.00      0.00     0.001      0.00    0.0   93.4
  P_aalst_1               50.00           3      0.00      0.49      0.56     0.442     22.42    0.0   86.9
  P_aalst_2               50.00           3      0.00      0.49      0.56     0.442     22.42    0.0   86.9
  P_aalst_3               50.00           3      0.00      0.44      0.49     0.393     19.93    0.0   86.9
  P_aalst_4              100.00           1      0.00      0.46      0.49     0.832     41.88    0.0   93.4
  P_pipe_Geldrop         100.00           1      0.00      0.09      0.11     0.157      0.00    0.0    0.0
  P_gb127                100.00           1      0.00      0.02      0.04     0.045      0.00    0.0    0.0
  P_c_99                 100.00           1      0.00      0.00      0.00     0.003      0.00    0.0    0.0
  P_c_112                100.00           1      0.00      0.00      0.00     0.001      0.00    0.0    0.0
  P_c_119_1               99.97           1      0.00      0.24      0.24     0.437      2.68    0.0  100.0
  P_c_122                100.00           1      0.00      0.00      0.00     0.002      0.00    0.0    0.0
  P_c_123                100.00           1      0.00      0.00      0.00     0.003      0.00    0.0    0.0
  P_c_119_2               99.97           1      0.00      0.34      0.34     0.612      3.61    0.0  100.0
  P_c_119_3               99.97           1      0.00      0.39      0.39     0.700      4.04    0.0  100.0
  P_c_119_fr_040         100.00           1      0.00      1.68     10.00     3.003     12.04    0.0  100.0
  P_c_119_fr_028         100.00           1      0.00      1.68     10.00     3.002     11.92    0.0  100.0
  P_c_119_fr_032         100.00           1      0.00      1.68     10.00     3.003     11.86    0.0  100.0
  P_geldrop_split_1      100.00           1      0.00      1.71     10.00     3.067     12.61    0.0  100.0
  P_geldrop_split_2      100.00           1      0.00      1.71     10.00     3.067     19.57    0.0  100.0
  

  Analysis begun on:  Sun Jun  1 11:41:57 2025
  Analysis ended on:  Sun Jun  1 11:41:58 2025
  Total elapsed time: 00:00:01