
  EPA STORM WATER MANAGEMENT MODEL - VERSION 5.2 (Build 5.2.4)
  PYSWMM TOOLKIT API - VERSION v1.0 (2023-11-27)
  ------------------------------------------------------------

  WARNING 02: maximum depth increased for Node gb127
  
  ****************
  Analysis Options
  ****************
  Flow Units ............... CMS
  Process Models:
    Rainfall/Runoff ........ YES
    RDII ................... NO
    Snowmelt ............... NO
    Groundwater ............ NO
    Flow Routing ........... YES
    Ponding Allowed ........ NO
    Water Quality .......... NO
  Infiltration Method ...... HORTON
  Flow Routing Method ...... DYNWAVE
  Surcharge Method ......... EXTRAN
  Starting Date ............ 01/01/2024 00:00:00
  Ending Date .............. 12/31/2024 00:00:00
  Antecedent Dry Days ...... 0.0
  Report Time Step ......... 00:05:00
  Wet Time Step ............ 00:01:00
  Dry Time Step ............ 00:10:00
  Routing Time Step ........ 2.00 sec
  Variable Time Step ....... YES
  Maximum Trials ........... 12
  Number of Threads ........ 2
  Head Tolerance ........... 0.000200 m
  
  
  *********************
  Rainfall File Summary
  *********************
  Station    First        Last         Recording   Periods    Periods    Periods
  ID         Date         Date         Frequency  w/Precip    Missing    Malfunc.
  -------------------------------------------------------------------------------
  ES         01/01/2024   12/31/2024       5 min    105217          0          0

  GE         01/01/2024   12/31/2024       5 min    105217          0          0

  RZ1        01/01/2024   12/31/2024       5 min    105217          0          0

  RZ2        01/01/2024   12/31/2024       5 min    105217          0          0

  
  
  **************************        Volume         Depth
  Runoff Quantity Continuity     hectare-m            mm
  **************************     ---------       -------
  Total Precipitation ......      2619.075       620.825
  Evaporation Loss .........      1141.565       270.596
  Infiltration Loss ........         0.000         0.000
  Surface Runoff ...........      1477.530       350.233
  Final Storage ............         0.002         0.000
  Continuity Error (%) .....        -0.001
  
  
  **************************        Volume        Volume
  Flow Routing Continuity        hectare-m      10^6 ltr
  **************************     ---------     ---------
  Dry Weather Inflow .......      2593.582     25936.092
  Wet Weather Inflow .......      1477.530     14775.451
  Groundwater Inflow .......         0.000         0.000
  RDII Inflow ..............         0.000         0.000
  External Inflow ..........      1141.192     11412.037
  External Outflow .........      5214.527     52145.817
  Flooding Loss ............        10.121       101.211
  Evaporation Loss .........         0.074         0.742
  Exfiltration Loss ........         0.000         0.000
  Initial Stored Volume ....         0.804         8.043
  Final Stored Volume ......         7.520        75.204
  Continuity Error (%) .....        -0.367
  
  
  ***************************
  Time-Step Critical Elements
  ***************************
  None
  
  
  ********************************
  Highest Flow Instability Indexes
  ********************************
  Link Con_123 (3)
  Link Con_122 (2)
  Link Con_121 (2)
  Link Con_117 (2)
  Link Con_156 (2)
  
  
  *********************************
  Most Frequent Nonconverging Nodes
  *********************************
  Node cso_Geldrop (0.68%)
  Node cso_gb_136 (0.68%)
  Node cso_RZ (0.68%)
  Node cso_ES_1 (0.68%)
  Node cso_AALST (0.68%)
  
  
  *************************
  Routing Time Step Summary
  *************************
  Minimum Time Step           :     0.00 sec
  Average Time Step           :     2.00 sec
  Maximum Time Step           :     2.00 sec
  % of Time in Steady State   :     0.00
  Average Iterations per Step :     2.11
  % of Steps Not Converging   :     0.68
  Time Step Frequencies       :
      2.000 -  1.516 sec      :    99.99 %
      1.516 -  1.149 sec      :     0.00 %
      1.149 -  0.871 sec      :     0.00 %
      0.871 -  0.660 sec      :     0.00 %
      0.660 -  0.500 sec      :     0.00 %
  
  
  ***************************
  Subcatchment Runoff Summary
  ***************************
  
  ------------------------------------------------------------------------------------------------------------------------------
                            Total      Total      Total      Total     Imperv       Perv      Total       Total     Peak  Runoff
                           Precip      Runon       Evap      Infil     Runoff     Runoff     Runoff      Runoff   Runoff   Coeff
  Subcatchment                 mm         mm         mm         mm         mm         mm         mm    10^6 ltr      CMS
  ------------------------------------------------------------------------------------------------------------------------------
  c_24_catchment           600.20       0.00     276.26       0.00     323.94       0.00     323.94     6215.87    20.17   0.540
  c_23_catchment           600.20       0.00     279.77       0.00     320.43       0.00     320.43        9.61     0.03   0.534
  c_22_catchment           600.20       0.00     279.77       0.00     320.43       0.00     320.43        5.13     0.02   0.534
  c_21_catchment           600.20       0.00     279.77       0.00     320.43       0.00     320.43       10.25     0.03   0.534
  c_12_catchment           600.20       0.00     279.77       0.00     320.43       0.00     320.43       11.86     0.03   0.534
  c_20_catchment           600.20       0.00     279.77       0.00     320.43       0.00     320.43       32.04     0.09   0.534
  c_19_catchment           600.20       0.00     279.77       0.00     320.43       0.00     320.43       10.89     0.03   0.534
  c_10_catchment           600.20       0.00     295.72       0.00     304.15       0.00     304.15       18.86     0.04   0.507
  c_16_catchment           600.20       0.00     279.77       0.00     320.43       0.00     320.43       84.59     0.25   0.534
  c_15_catchment           600.20       0.00     279.77       0.00     320.43       0.00     320.43      108.63     0.32   0.534
  c_14_catchment           600.20       0.00     279.77       0.00     320.43       0.00     320.43      114.07     0.33   0.534
  c_129_catchment          648.29       0.00     256.51       0.00     391.79       0.00     391.79       19.59     0.16   0.604
  c_128_catchment          648.29       0.00     262.46       0.00     385.84       0.00     385.84      984.28     6.53   0.595
  c_1285_catchment         648.29       0.00     258.47       0.00     389.83       0.00     389.83       22.61     0.17   0.601
  c_127_catchment          648.29       0.00     253.95       0.00     394.36       0.00     394.36      531.99     5.17   0.608
  c_126_catchment          648.29       0.00     255.84       0.00     392.47       0.00     392.47       62.01     0.54   0.605
  c_125_catchment          648.29       0.00     245.29       0.00     403.04       0.00     403.04       21.36     0.42   0.622
  c_124_catchment          648.29       0.00     237.02       0.00     411.43       0.00     411.43        4.11     0.22   0.635
  c_136_catchment          648.29       0.00     280.11       0.00     368.18       0.00     368.18      185.93     0.66   0.568
  c_135_catchment          648.29       0.00     275.92       0.00     372.37       0.00     372.37       81.92     0.34   0.574
  c_131_catchment          648.29       0.00     281.47       0.00     366.83       0.00     366.83       78.87     0.27   0.566
  c_130_catchment          648.29       0.00     269.49       0.00     378.81       0.00     378.81       14.77     0.08   0.584
  c_134_catchment          648.29       0.00     275.20       0.00     373.10       0.00     373.10       19.77     0.08   0.576
  c_132_catchment          648.29       0.00     269.49       0.00     378.81       0.00     378.81       14.77     0.08   0.584
  c_150_catchment          654.63       0.00     261.97       0.00     392.67       0.00     392.67      804.97     5.51   0.600
  c_123_catchment          654.63       0.00     266.38       0.00     388.25       0.00     388.25      394.08     2.30   0.593
  c_143_catchment          654.63       0.00     286.77       0.00     367.86       0.00     367.86     1133.01     3.72   0.562
  c_147_catchment          654.63       0.00     259.38       0.00     395.26       0.00     395.26       17.00     0.13   0.604
  c_160_catchment          654.63       0.00     261.60       0.00     393.04       0.00     393.04       19.65     0.14   0.600
  c_145_catchment          654.63       0.00     250.09       0.00     404.56       0.00     404.56        4.05     0.06   0.618
  c_144_catchment          654.63       0.00     268.30       0.00     386.33       0.00     386.33       88.08     0.48   0.590
  c_142_catchment          654.63       0.00     269.33       0.00     385.31       0.00     385.31      295.92     1.54   0.589
  c_148_catchment          654.63       0.00     261.53       0.00     393.11       0.00     393.11       44.03     0.31   0.601
  c_149_catchment          654.63       0.00     269.43       0.00     385.20       0.00     385.20       70.49     0.37   0.588
  c_151_catchment          654.63       0.00     265.81       0.00     388.83       0.00     388.83      114.32     0.68   0.594
  c_161_catchment          654.63       0.00     271.29       0.00     383.34       0.00     383.34      260.67     1.28   0.586
  c_138_catchment          654.63       0.00     267.46       0.00     387.17       0.00     387.17      111.89     0.63   0.591
  c_139_catchment          654.63       0.00     260.36       0.00     394.28       0.00     394.28       18.14     0.13   0.602
  c_137_catchment          654.63       0.00     250.09       0.00     404.56       0.00     404.56        4.05     0.06   0.618
  c_122_catchment          617.78       0.00     243.95       0.00     373.85       0.00     373.85      195.15     1.66   0.605
  c_121_catchment          617.78       0.00     272.33       0.00     345.45       0.00     345.45       35.58     0.11   0.559
  c_120_catchment          617.78       0.00     254.53       0.00     363.26       0.00     363.26       17.80     0.10   0.588
  c_119_catchment          617.78       0.00     259.08       0.00     358.71       0.00     358.71     1409.73     6.54   0.581
  c_100_catchment          617.78       0.00     246.65       0.00     371.14       0.00     371.14       24.87     0.18   0.601
  c_118_catchment          617.78       0.00     247.26       0.00     370.53       0.00     370.53       41.87     0.30   0.600
  c_116_catchment          617.78       0.00     252.64       0.00     365.15       0.00     365.15       47.10     0.28   0.591
  c_114_catchment          617.78       0.00     248.18       0.00     369.62       0.00     369.62       22.55     0.16   0.598
  c_112_catchment          617.78       0.00     238.54       0.00     379.27       0.00     379.27      108.09     1.36   0.614
  c_107_catchment          617.78       0.00     261.82       0.00     355.96       0.00     355.96      274.80     1.14   0.576
  c_107_2_catchment        617.78       0.00     255.25       0.00     362.54       0.00     362.54       32.63     0.18   0.587
  c_106_catchment          617.78       0.00     254.89       0.00     362.89       0.00     362.89       41.01     0.22   0.587
  c_99_catchment           617.78       0.00     259.98       0.00     357.81       0.00     357.81      371.05     1.66   0.579
  c_103_catchment          617.78       0.00     246.02       0.00     371.78       0.00     371.78       14.13     0.11   0.602
  c_98_catchment           617.78       0.00     255.69       0.00     362.10       0.00     362.10       94.87     0.50   0.586
  
  
  ******************
  Node Depth Summary
  ******************
  
  ---------------------------------------------------------------------------------
                                 Average  Maximum  Maximum  Time of Max    Reported
                                   Depth    Depth      HGL   Occurrence   Max Depth
  Node                 Type       Meters   Meters   Meters  days hr:min      Meters
  ---------------------------------------------------------------------------------
  Nod_100              JUNCTION     0.60     2.97    17.45     0  00:00        2.97
  Nod_890              JUNCTION     0.54     2.97    15.90     1  07:30        2.95
  Nod_891              JUNCTION     0.47     2.87    15.87     1  07:24        2.87
  Nod_892              JUNCTION     0.41     2.84    15.90   204  09:15        2.84
  Nod_A*HLCMRZ1135     JUNCTION     0.63     3.08    15.92   204  09:15        3.07
  Nod_103              JUNCTION     0.42     2.00    15.97     1  06:51        2.00
  Nod_104              JUNCTION     0.33     2.00    15.78     1  06:48        1.89
  Nod_105              JUNCTION     0.34     2.00    15.76     1  06:48        1.90
  Nod_106              JUNCTION     0.42     2.00    15.57     1  06:45        2.00
  Nod_107              JUNCTION     0.42     2.00    15.55     1  06:45        2.00
  Nod_108              JUNCTION     1.05     9.47    20.67     1  06:12        4.46
  Nod_109              JUNCTION     0.58     6.94    18.46     1  06:01        4.15
  Nod_110              JUNCTION     0.39     2.59    16.13     1  07:26        2.42
  Nod_111              JUNCTION     0.37     2.64    16.11     1  07:26        2.48
  Nod_112              JUNCTION     0.63     3.13    15.97     1  07:26        3.05
  Nod_113              JUNCTION     0.66     3.16    15.96     1  07:26        3.09
  Nod_114              JUNCTION     0.41     3.18    15.95     1  07:26        3.11
  Nod_115              JUNCTION     0.42     3.25    15.95     1  07:26        3.17
  Nod_116              JUNCTION     0.42     3.28    15.95     1  07:26        3.20
  Nod_117              JUNCTION     0.45     7.78    20.05     1  06:14        3.56
  Nod_118              JUNCTION     0.56     5.45    17.36     1  06:08        3.89
  Nod_119              JUNCTION     0.64     6.98    18.42     1  06:01        4.23
  Nod_120              JUNCTION     0.68     6.12    17.49     1  06:01        4.31
  Nod_121              JUNCTION     0.76     5.20    16.46     1  06:01        4.42
  Nod_122              JUNCTION     0.87     4.55    15.69     1  07:28        4.54
  Nod_123              JUNCTION     0.92     4.60    15.69     1  07:28        4.60
  Nod_124              JUNCTION     0.90     4.68    15.69     1  07:29        4.68
  Nod_126              JUNCTION     0.45     1.27    18.44   204  06:41        1.27
  Nod_127              JUNCTION     0.63     1.43    19.44   190  17:50        1.43
  Nod_128              JUNCTION     0.27     0.82    18.54   204  06:43        0.82
  Nod_129              JUNCTION     0.42     0.95    16.59     1  08:01        0.95
  Nod_130              JUNCTION     0.28     1.70    16.76     0  00:05        1.70
  Nod_131              JUNCTION     0.41     1.81    16.35     0  00:05        1.81
  Nod_132              JUNCTION     0.41     1.80    16.13     1  07:49        1.79
  Nod_133              JUNCTION     0.42     1.84    16.12     1  07:48        1.84
  Nod_134              JUNCTION     0.45     1.98    16.08     1  07:47        1.97
  Nod_135              JUNCTION     0.46     2.02    16.07     1  07:47        2.01
  Nod_136              JUNCTION     0.52     2.11    16.04     1  07:42        2.11
  Nod_222              JUNCTION     1.29     5.84    17.04     1  06:08        4.60
  Nod_233              JUNCTION     0.75     4.24    15.76     1  07:28        4.21
  Nod_244              JUNCTION     0.78     4.31    15.75     1  07:28        4.28
  Nod_266              JUNCTION     0.80     4.36    15.73     1  07:28        4.34
  Nod_277              JUNCTION     0.85     4.45    15.71     1  07:28        4.44
  J1                   JUNCTION     1.77     4.00    19.06     0  03:08        4.00
  J119                 JUNCTION   521.69  21354.07  21354.07   204  05:50    21350.89
  cso_Geldrop          OUTFALL      0.00     0.00     4.62     0  00:00        0.00
  cso_gb_136           OUTFALL      0.00     0.00     1.00     0  00:00        0.00
  cso_RZ               OUTFALL      0.00     0.00    16.07     0  00:00        0.00
  cso_ES_1             OUTFALL      0.00     0.00     0.00     0  00:00        0.00
  cso_AALST            OUTFALL      0.00     0.00     0.00     0  00:00        0.00
  out_ES               OUTFALL      0.00     0.00     0.00     0  00:00        0.00
  out_RZ               OUTFALL      0.00     0.00     0.00     0  00:00        0.00
  cso_gb127            OUTFALL      0.00     0.00     0.00     0  00:00        0.00
  cso_c_122            OUTFALL      0.00     0.00     0.00     0  00:00        0.00
  cso_c_119_1          OUTFALL      0.00     0.00     0.00     0  00:00        0.00
  cso_c_112            OUTFALL      0.00     0.00     0.00     0  00:00        0.00
  cso_c_99             OUTFALL      0.00     0.00     0.00     0  00:00        0.00
  cso_c_123            OUTFALL      0.00     0.00     0.00     0  00:00        0.00
  cso_c_119_2          OUTFALL      0.00     0.00     0.00     0  00:00        0.00
  cso_c_119_3          OUTFALL      0.00     0.00     0.00     0  00:00        0.00
  c_24_vr_storage_5    STORAGE      0.00     0.00     0.00   232  19:30        0.00
  c_23_vr_storage_7    STORAGE      0.00     0.00     0.00   232  19:00        0.00
  c_22_vr_storage_5    STORAGE      0.00     0.00     0.00   232  19:00        0.00
  c_21_vr_storage_7    STORAGE      0.00     0.00     0.00   232  19:00        0.00
  c_12_vr_storage_8    STORAGE      0.00     0.00     0.00   232  19:01        0.00
  c_20_vr_storage_13   STORAGE      0.00     0.00     0.00   232  19:05        0.00
  c_19_vr_storage_7    STORAGE      0.00     0.00     0.00   232  19:00        0.00
  c_10_vr_storage_10   STORAGE      0.00     0.00     0.00   232  19:35        0.00
  c_16_vr_storage_20   STORAGE      0.00     0.00     0.00   232  19:10        0.00
  c_15_vr_storage_24   STORAGE      0.00     0.00     0.00   232  19:15        0.00
  c_14_vr_storage_24   STORAGE      0.00     0.00     0.00   232  19:15        0.00
  pipe_ES              STORAGE      0.17     2.60     2.60   232  22:10        2.60
  pipe_Geldrop         STORAGE      0.03     2.86    17.92   190  19:45        2.86
  gb_136               STORAGE      0.01     0.90    17.35   190  20:05        0.90
  c_129_vr_storage_5   STORAGE      0.00     0.00     0.00   232  18:55        0.00
  c_128_vr_storage_5   STORAGE      0.00     0.00     0.00   232  18:56        0.00
  c_1285_vr_storage_5  STORAGE      0.00     0.00     0.00   232  18:55        0.00
  c_127_vr_storage_5   STORAGE      0.00     0.00     0.00   232  18:56        0.00
  c_126_vr_storage_5   STORAGE      0.00     0.00     0.00   190  17:15        0.00
  c_125_vr_storage_5   STORAGE      0.00     0.00     0.00   190  17:10        0.00
  c_124_storage        STORAGE      0.04     0.06    14.28   205  10:07        0.06
  c_136_vr_storage_5   STORAGE      0.00     0.00     0.00   232  19:05        0.00
  c_135_vr_storage_5   STORAGE      0.00     0.00     0.00   232  18:57        0.00
  c_131_vr_storage_5   STORAGE      0.00     0.00     0.00   232  19:00        0.00
  c_130_vr_storage_5   STORAGE      0.00     0.00     0.00   232  18:55        0.00
  c_134_vr_storage_5   STORAGE      0.00     0.00     0.00   232  18:56        0.00
  c_132_vr_storage_5   STORAGE      0.00     0.00     0.00   232  18:55        0.00
  Aalst_gemaal         STORAGE      0.16     2.50     2.50   233  00:20        2.50
  pre_ontvangstkelder  STORAGE     18.63    26.19    15.69     1  07:29       26.19
  c_150_vr_storage_57  STORAGE      0.00     0.01     0.01   204  05:05        0.01
  c_123_vr_storage_40  STORAGE      0.00     0.00     0.00   204  04:56        0.00
  c_143_vr_storage_70  STORAGE      0.00     0.03     0.03   232  20:00        0.03
  c_147_vr_storage_4   STORAGE      0.00     0.00     0.00   204  04:35        0.00
  c_160_vr_storage_8   STORAGE      0.00     0.00     0.00   232  19:00        0.00
  c_145_vr_storage_4   STORAGE      0.00     0.00     0.00   190  17:05        0.00
  c_144_vr_storage_19  STORAGE      0.00     0.00     0.00   204  04:45        0.00
  c_142_vr_storage_35  STORAGE      0.00     0.00     0.00   232  19:20        0.00
  c_148_vr_storage_12  STORAGE      0.00     0.00     0.00   204  04:38        0.00
  c_149_vr_storage_17  STORAGE      0.00     0.00     0.00   204  04:45        0.00
  c_151_vr_storage_22  STORAGE      0.00     0.00     0.00   204  04:45        0.00
  c_161_vr_storage_32  STORAGE      0.00     0.00     0.00   232  19:17        0.00
  c_138_vr_storage_22  STORAGE      0.00     0.00     0.00   204  04:45        0.00
  c_139_vr_storage_8   STORAGE      0.00     0.00     0.00   204  04:37        0.00
  c_137_vr_storage_4   STORAGE      0.00     0.00     0.00   190  17:05        0.00
  c_122_vr_storage_29  STORAGE      0.00     0.00     0.00   204  04:35        0.00
  c_121_vr_storage_12  STORAGE      0.00     0.00     0.00   232  19:00        0.00
  c_120_vr_storage_8   STORAGE      0.00     0.00     0.00   204  04:34        0.00
  c_119_vr_storage_80  STORAGE      0.00     0.03     0.03   232  19:45        0.03
  c_100_vr_storage_10  STORAGE      0.00     0.00     0.00   204  04:30        0.00
  c_118_vr_storage_13  STORAGE      0.00     0.00     0.00   204  04:31        0.00
  c_116_vr_storage_15  STORAGE      0.00     0.00     0.00   204  04:37        0.00
  c_114_vr_storage_10  STORAGE      0.00     0.00     0.00   204  04:30        0.00
  c_112_vr_storage_21  STORAGE      0.00     0.00     0.00   204  04:25        0.00
  c_107_vr_storage_36  STORAGE      0.00     0.00     0.00   232  19:15        0.00
  c_107_2_vr_storage_12 STORAGE      0.00     0.00     0.00   204  04:35        0.00
  c_106_vr_storage_13  STORAGE      0.00     0.00     0.00   204  04:35        0.00
  c_99_vr_storage_41   STORAGE      0.00     0.00     0.00   232  19:15        0.00
  c_103_vr_storage_8   STORAGE      0.00     0.00     0.00   204  04:29        0.00
  c_98_vr_storage_20   STORAGE      0.00     0.00     0.00   204  04:39        0.00
  gb127                STORAGE      0.01     0.95     0.95   232  19:15        0.95
  c_123                STORAGE      0.05    11.82    11.82   232  22:35       11.82
  c_122                STORAGE      0.53     7.97     7.97     3  10:30        7.97
  c_112                STORAGE      0.02     1.73     1.73   204  04:55        1.73
  c_99                 STORAGE      0.01     5.57     5.57   232  21:20        5.57
  c_119_1              STORAGE      0.09     5.07     5.07   232  20:20        5.07
  c_119_2              STORAGE      0.03     7.04     7.04   232  21:00        7.04
  c_119_3              STORAGE      0.04    11.20    11.20   232  22:55       11.20
  
  
  *******************
  Node Inflow Summary
  *******************
  
  -------------------------------------------------------------------------------------------------
                                  Maximum  Maximum                  Lateral       Total        Flow
                                  Lateral    Total  Time of Max      Inflow      Inflow     Balance
                                   Inflow   Inflow   Occurrence      Volume      Volume       Error
  Node                 Type           CMS      CMS  days hr:min    10^6 ltr    10^6 ltr     Percent
  -------------------------------------------------------------------------------------------------
  Nod_100              JUNCTION     0.000   10.019     0  00:00           0    3.87e+03       0.000
  Nod_890              JUNCTION     0.000    1.504     1  06:48           0         301       0.049
  Nod_891              JUNCTION     0.000    1.355     1  07:50           0         185       0.028
  Nod_892              JUNCTION     0.000    0.771     1  06:57           0        50.2      -0.033
  Nod_A*HLCMRZ1135     JUNCTION     0.000    0.501     1  07:06           0        9.92       0.385
  Nod_103              JUNCTION     0.000    0.817     0  00:05           0    3.86e+03       0.051
  Nod_104              JUNCTION     0.000    0.647   204  16:05           0    4.05e+03       0.001
  Nod_105              JUNCTION     0.000    0.605   204  16:05           0    3.94e+03      -0.002
  Nod_106              JUNCTION     0.000    0.624   204  16:05           0    3.94e+03       0.000
  Nod_107              JUNCTION     0.000    0.735   356  12:10           0    3.95e+03       0.240
  Nod_108              JUNCTION     0.000    2.218     1  06:03           0    3.93e+03      -0.126
  Nod_109              JUNCTION     0.000    2.149     1  06:01           0    3.96e+03       0.001
  Nod_110              JUNCTION     0.000    3.099   204  16:06           0    2.06e+04       0.003
  Nod_111              JUNCTION     0.000    3.052   204  16:06           0    2.06e+04       0.001
  Nod_112              JUNCTION     0.000    3.043   204  16:06           0    2.07e+04      -0.002
  Nod_113              JUNCTION     0.000    2.981   204  16:05           0    2.05e+04       0.000
  Nod_114              JUNCTION     0.000    2.981   204  16:05           0    2.05e+04      -0.001
  Nod_115              JUNCTION     0.000    2.981   204  16:05           0    2.05e+04      -0.000
  Nod_116              JUNCTION     0.000    2.981   204  16:05           0    2.05e+04      -0.000
  Nod_117              JUNCTION     0.000    2.981   204  16:05           0    2.05e+04       0.012
  Nod_118              JUNCTION     0.000    4.387   204  06:30           0     2.6e+04       0.008
  Nod_119              JUNCTION     0.000    2.180   339  19:02           0    3.99e+03       0.003
  Nod_120              JUNCTION     0.000    2.185   339  19:02           0    4.01e+03       0.004
  Nod_121              JUNCTION     0.000    2.375   141  19:02           0    4.06e+03       0.005
  Nod_122              JUNCTION     0.000    2.337   141  19:02           0    4.16e+03       0.001
  Nod_123              JUNCTION     0.000    4.649   141  19:02           0    2.46e+04      -0.007
  Nod_124              JUNCTION     0.000    6.235   328  07:46           0    2.66e+04       0.046
  Nod_126              JUNCTION     0.000    2.104     1  07:49           0     1.8e+04      -0.003
  Nod_127              JUNCTION     0.000    2.100     0  00:05           0     1.8e+04       0.001
  Nod_128              JUNCTION     0.000    2.116   204  05:12           0     1.8e+04      -0.003
  Nod_129              JUNCTION     0.000    3.395     0  00:04           0     1.8e+04      -0.002
  Nod_130              JUNCTION     0.000   10.805     0  00:00           0    2.06e+04       0.000
  Nod_131              JUNCTION     0.000    9.744     0  00:01           0    2.06e+04       0.000
  Nod_132              JUNCTION     0.000    7.133     0  00:05           0    2.06e+04       0.000
  Nod_133              JUNCTION     0.000    5.318     0  00:05           0    2.06e+04       0.000
  Nod_134              JUNCTION     0.000    4.519     0  00:06           0    2.06e+04       0.000
  Nod_135              JUNCTION     0.000    3.567     0  00:07           0    2.06e+04       0.000
  Nod_136              JUNCTION     0.000    3.269     0  00:09           0    2.06e+04       0.013
  Nod_222              JUNCTION     0.000    5.872   204  06:40           0     2.6e+04      -0.010
  Nod_233              JUNCTION     0.000    2.980   204  16:05           0    2.05e+04      -0.009
  Nod_244              JUNCTION     0.000    2.980   204  16:05           0    2.05e+04      -0.000
  Nod_266              JUNCTION     0.000    2.980   204  16:05           0    2.05e+04       0.000
  Nod_277              JUNCTION     0.000    2.979   204  16:05           0    2.05e+04       0.001
  J1                   JUNCTION     0.000    0.800     1  01:40           0     5.1e+03      -0.572
  J119                 JUNCTION     0.000    7.014   204  05:45           0    2.47e+03      -0.361
  cso_Geldrop          OUTFALL      0.000    2.548   190  19:45           0        18.4       0.000
  cso_gb_136           OUTFALL      0.000    0.744   190  20:05           0        8.06       0.000
  cso_RZ               OUTFALL      0.000    0.000     0  00:00           0           0       0.000 ltr
  cso_ES_1             OUTFALL      0.000    3.737   232  22:10           0        33.9       0.000
  cso_AALST            OUTFALL      0.000    1.817   233  00:20           0        32.5       0.000
  out_ES               OUTFALL      0.000    3.888    37  05:45           0    2.75e+04       0.000
  out_RZ               OUTFALL      0.000    3.464   204  16:00           0    2.44e+04       0.000
  cso_gb127            OUTFALL      0.000    3.396   232  19:15           0        46.8       0.000
  cso_c_122            OUTFALL      0.000    0.192     3  10:30           0         1.5       0.000
  cso_c_119_1          OUTFALL      0.000    2.406   232  20:20           0        55.8       0.000
  cso_c_112            OUTFALL      0.000    0.725   204  04:55           0        5.93       0.000
  cso_c_99             OUTFALL      0.000    0.000     0  00:00           0           0       0.000 ltr
  cso_c_123            OUTFALL      0.000    0.000     0  00:00           0           0       0.000 ltr
  cso_c_119_2          OUTFALL      0.000    1.065   232  21:00           0        4.47       0.000
  cso_c_119_3          OUTFALL      0.000    0.000     0  00:00           0           0       0.000 ltr
  c_24_vr_storage_5    STORAGE     20.939   21.777   232  19:00     2.7e+04    2.75e+04      -0.000
  c_23_vr_storage_7    STORAGE      0.030    0.030   232  19:00        41.8        41.8      -0.000
  c_22_vr_storage_5    STORAGE      0.015    0.015   232  19:00        5.13        5.13      -0.000
  c_21_vr_storage_7    STORAGE      0.032    0.032   232  19:00        40.5        40.5      -0.000
  c_12_vr_storage_8    STORAGE      0.038    0.038   232  19:00        62.1        62.1      -0.000
  c_20_vr_storage_13   STORAGE      0.094    0.094   232  19:00          32          32      -0.000
  c_19_vr_storage_7    STORAGE      0.033    0.033   232  19:00          35          35      -0.000
  c_10_vr_storage_10   STORAGE      0.037    0.037   232  19:30        18.9        18.9      -0.000
  c_16_vr_storage_20   STORAGE      0.248    0.248   232  19:00        84.6        84.6      -0.000
  c_15_vr_storage_24   STORAGE      0.320    0.320   232  19:00         144         144      -0.000
  c_14_vr_storage_24   STORAGE      0.334    0.334   232  19:00         114         114      -0.000
  pipe_ES              STORAGE      0.000   21.649   232  19:00           0    2.75e+04       0.000
  pipe_Geldrop         STORAGE      0.000    7.161   232  18:55           0    5.12e+03      -0.000
  gb_136               STORAGE      0.000    1.528   232  19:05           0    1.33e+03      -0.000
  c_129_vr_storage_5   STORAGE      0.163    0.163   190  17:15        19.6        19.6      -0.000
  c_128_vr_storage_5   STORAGE      6.611    7.261   232  18:55    3.48e+03    5.12e+03       0.000
  c_1285_vr_storage_5  STORAGE      0.174    0.174   232  18:55        37.1        37.1      -0.000
  c_127_vr_storage_5   STORAGE      5.178    6.159   190  17:15         783    1.63e+03       0.000
  c_126_vr_storage_5   STORAGE      0.561    0.981   190  17:15         816         847      -0.000
  c_125_vr_storage_5   STORAGE      0.424    0.424   190  17:10        31.1        31.1      -0.000
  c_124_storage        STORAGE      0.224    0.224   190  17:10         137         238       0.003
  c_136_vr_storage_5   STORAGE      0.684    1.529   232  19:00         861    1.33e+03      -0.000
  c_135_vr_storage_5   STORAGE      0.339    0.339   232  18:55         179         179      -0.000
  c_131_vr_storage_5   STORAGE      0.272    0.349   232  19:00         171         214      -0.000
  c_130_vr_storage_5   STORAGE      0.077    0.077   232  18:55        42.8        42.8      -0.000
  c_134_vr_storage_5   STORAGE      0.084    0.084   232  18:55        40.6        40.6      -0.000
  c_132_vr_storage_5   STORAGE      0.077    0.077   232  18:55        35.3        35.3      -0.000
  Aalst_gemaal         STORAGE      0.000   15.904   232  20:20           0    1.79e+04      -0.921
  pre_ontvangstkelder  STORAGE      0.000    6.437   144  22:03           0    2.66e+04      -0.035
  c_150_vr_storage_57  STORAGE      5.523    5.523   204  04:35    1.34e+03    1.34e+03      -0.000
  c_123_vr_storage_40  STORAGE      2.308    2.308   204  04:35         690         690      -0.000
  c_143_vr_storage_70  STORAGE      3.820    9.101   232  19:30    3.77e+03    6.97e+03       0.000
  c_147_vr_storage_4   STORAGE      0.130    0.130   190  17:05          17          17      -0.000
  c_160_vr_storage_8   STORAGE      0.188    0.188   190  17:05    1.63e+03    1.63e+03      -0.000
  c_145_vr_storage_4   STORAGE      0.059    0.059   190  17:05        25.2        25.2      -0.000
  c_144_vr_storage_19  STORAGE      0.480    0.480   204  04:35         141         141      -0.000
  c_142_vr_storage_35  STORAGE      1.550    1.550   204  04:35         551         551      -0.000
  c_148_vr_storage_12  STORAGE      0.306    0.306   204  04:35        72.4        72.4      -0.000
  c_149_vr_storage_17  STORAGE      0.367    0.367   204  04:35        70.5        70.5      -0.000
  c_151_vr_storage_22  STORAGE      0.683    0.683   204  04:35         136         136      -0.000
  c_161_vr_storage_32  STORAGE      1.276    1.276   232  18:55         261         261      -0.000
  c_138_vr_storage_22  STORAGE      0.630    0.799   204  04:35         231         307      -0.000
  c_139_vr_storage_8   STORAGE      0.131    0.131   204  04:35        18.1        18.1      -0.000
  c_137_vr_storage_4   STORAGE      0.060    0.060   190  17:05          58          58      -0.000
  c_122_vr_storage_29  STORAGE      1.667    1.667   190  17:00         348         348      -0.000
  c_121_vr_storage_12  STORAGE      0.121    0.210   232  18:55         287         343      -0.000
  c_120_vr_storage_8   STORAGE      0.099    0.099   204  04:30        55.3        55.3      -0.000
  c_119_vr_storage_80  STORAGE      6.556    7.039   204  04:30    2.39e+03    2.47e+03      -0.000
  c_100_vr_storage_10  STORAGE      0.185    0.185   204  04:25        45.7        45.7      -0.000
  c_118_vr_storage_13  STORAGE      0.304    0.304   204  04:30        41.9        41.9      -0.000
  c_116_vr_storage_15  STORAGE      0.282    0.439   204  04:30        89.7         135      -0.000
  c_114_vr_storage_10  STORAGE      0.159    0.159   204  04:30        44.9        44.9      -0.000
  c_112_vr_storage_21  STORAGE      1.366    1.366   190  17:00         165         165      -0.000
  c_107_vr_storage_36  STORAGE      1.266    1.646   204  04:35    4.21e+03    4.67e+03      -0.000
  c_107_2_vr_storage_12 STORAGE      0.176    0.176   204  04:30        41.5        41.5      -0.000
  c_106_vr_storage_13  STORAGE      0.235    0.235   204  04:30         418         418      -0.000
  c_99_vr_storage_41   STORAGE      1.665    1.773   204  04:30         597         631      -0.000
  c_103_vr_storage_8   STORAGE      0.108    0.108   204  04:25        33.7        33.7      -0.000
  c_98_vr_storage_20   STORAGE      0.504    0.504   204  04:30         181         181      -0.000
  gb127                STORAGE      0.000    5.682   190  17:15           0    1.63e+03      -0.001
  c_123                STORAGE      0.000    2.307   204  05:10           0         690      -0.001
  c_122                STORAGE      0.000    1.666   190  17:25           0         348      -0.000
  c_112                STORAGE      0.000    1.366   190  17:15           0         165      -0.002
  c_99                 STORAGE      0.000    1.772   204  05:05           0         631      -0.000
  c_119_1              STORAGE      0.000   10.000     0  00:00           0         993      -0.000
  c_119_2              STORAGE      0.000   10.000     0  00:00           0         696      -0.000
  c_119_3              STORAGE      0.000   10.000     0  00:00           0         795      -0.000
  
  
  **********************
  Node Surcharge Summary
  **********************
  
  Surcharging occurs when water rises above the top of the highest conduit.
  ---------------------------------------------------------------------
                                               Max. Height   Min. Depth
                                   Hours       Above Crown    Below Rim
  Node                 Type      Surcharged         Meters       Meters
  ---------------------------------------------------------------------
  Nod_100              JUNCTION      389.22          1.750        0.000
  Nod_890              JUNCTION       46.91          0.874        0.026
  Nod_891              JUNCTION       45.99          0.770        0.000
  Nod_892              JUNCTION       41.67          0.743        1.157
  Nod_103              JUNCTION       22.12          0.580        0.000
  Nod_104              JUNCTION       26.35          0.780        0.000
  Nod_105              JUNCTION       26.95          0.780        0.000
  Nod_106              JUNCTION       31.16          0.780        0.000
  Nod_107              JUNCTION       30.89          0.780        0.000
  Nod_108              JUNCTION       57.58          6.596        0.334
  Nod_109              JUNCTION      263.73          5.145       21.535
  Nod_110              JUNCTION       22.37          0.329        4.871
  Nod_111              JUNCTION       26.68          0.542        4.888
  Nod_112              JUNCTION       34.83          0.704        5.026
  Nod_113              JUNCTION       36.79          0.744        5.036
  Nod_114              JUNCTION       61.91          1.085        5.045
  Nod_115              JUNCTION      143.82          1.453        5.047
  Nod_116              JUNCTION      149.44          1.480        5.050
  Nod_117              JUNCTION      220.29          5.981        0.949
  Nod_118              JUNCTION      261.35          3.558        3.642
  Nod_119              JUNCTION      287.90          5.185       21.575
  Nod_120              JUNCTION      320.65          4.323       22.507
  Nod_121              JUNCTION      402.34          3.396       23.544
  Nod_122              JUNCTION      501.57          2.752       24.308
  Nod_123              JUNCTION      545.72          2.801       24.309
  Nod_124              JUNCTION      601.72          2.877       24.313
  Nod_136              JUNCTION       10.13          0.014        4.956
  Nod_222              JUNCTION      302.97          3.387        3.963
  Nod_233              JUNCTION      353.01          2.441       24.239
  Nod_244              JUNCTION      371.37          2.507       24.253
  Nod_266              JUNCTION      390.77          2.561       24.269
  Nod_277              JUNCTION      432.43          2.653       24.287
  J1                   JUNCTION     8760.00          4.000        0.000
  J119                 JUNCTION     8760.00      21354.074    99978644.926
  
  
  *********************
  Node Flooding Summary
  *********************
  
  Flooding refers to all water that overflows a node, whether it ponds or not.
  --------------------------------------------------------------------------
                                                             Total   Maximum
                                 Maximum   Time of Max       Flood    Ponded
                        Hours       Rate    Occurrence      Volume     Depth
  Node                 Flooded       CMS   days hr:min    10^6 ltr    Meters
  --------------------------------------------------------------------------
  Nod_100                 0.72     9.992      0  00:00       2.845     0.000
  Nod_891                20.51     1.355      1  07:50      54.244     0.000
  Nod_103                 0.91     0.156    204  08:39       0.024     0.000
  Nod_104                 0.01     0.093      1  06:48       0.000     0.000
  Nod_105                 0.01     0.013      1  15:10       0.000     0.000
  Nod_106                10.18     0.083      1  06:45       0.501     0.000
  Nod_107                15.71     0.735    356  12:10      16.928     0.000
  J1                   1185.04     0.662    190  17:10      26.664     0.000
  
  
  **********************
  Storage Volume Summary
  **********************
  
  ------------------------------------------------------------------------------------------------
                         Average    Avg   Evap  Exfil     Maximum    Max    Time of Max    Maximum
                          Volume   Pcnt   Pcnt   Pcnt      Volume   Pcnt     Occurrence    Outflow
  Storage Unit           1000 m³   Full   Loss   Loss     1000 m³   Full    days hr:min        CMS
  ------------------------------------------------------------------------------------------------
  c_24_vr_storage_5        0.161    0.0    0.0    0.0       3.423    0.0     232  19:30     21.649
  c_23_vr_storage_7        0.000    0.0    0.0    0.0       0.005    0.0     232  19:00      0.030
  c_22_vr_storage_5        0.000    0.0    0.0    0.0       0.002    0.0     232  19:00      0.015
  c_21_vr_storage_7        0.000    0.0    0.0    0.0       0.005    0.0     232  19:00      0.032
  c_12_vr_storage_8        0.001    0.0    0.0    0.0       0.017    0.0     232  19:01      0.038
  c_20_vr_storage_13       0.001    0.0    0.0    0.0       0.070    0.0     232  19:05      0.094
  c_19_vr_storage_7        0.000    0.0    0.0    0.0       0.005    0.0     232  19:00      0.033
  c_10_vr_storage_10       0.000    0.0    0.0    0.0       0.017    0.0     232  19:35      0.037
  c_16_vr_storage_20       0.003    0.0    0.0    0.0       0.256    0.0     232  19:10      0.248
  c_15_vr_storage_24       0.006    0.0    0.0    0.0       0.424    0.0     232  19:15      0.320
  c_14_vr_storage_24       0.005    0.0    0.0    0.0       0.443    0.0     232  19:15      0.334
  pipe_ES                 11.451    5.8    0.0    0.0     171.532   86.6     232  22:10      7.625
  pipe_Geldrop             0.296    0.6    0.0    0.0      28.567   57.1     190  19:45      3.348
  gb_136                   0.091    0.6    0.0    0.0       8.969   59.8     190  20:05      0.935
  c_129_vr_storage_5       0.000    0.0    0.0    0.0       0.024    0.0     232  18:55      0.163
  c_128_vr_storage_5       0.781    0.0    0.0    0.0       2.033    0.0     232  18:56      7.161
  c_1285_vr_storage_5      0.000    0.0    0.0    0.0       0.026    0.0     232  18:55      0.173
  c_127_vr_storage_5       0.005    0.0    0.0    0.0       0.892    0.0     232  18:56      5.682
  c_126_vr_storage_5       0.001    0.0    0.0    0.0       0.193    0.0     190  17:15      0.981
  c_125_vr_storage_5       0.000    0.0    0.0    0.0       0.053    0.0     190  17:10      0.420
  c_124_storage           42.982    0.4    0.0    0.0      58.901    0.6     205  10:07      0.011
  c_136_vr_storage_5       0.008    0.0    0.0    0.0       0.353    0.0     232  19:05      1.528
  c_135_vr_storage_5       0.001    0.0    0.0    0.0       0.051    0.0     232  18:57      0.338
  c_131_vr_storage_5       0.001    0.0    0.0    0.0       0.064    0.0     232  19:00      0.349
  c_130_vr_storage_5       0.000    0.0    0.0    0.0       0.012    0.0     232  18:55      0.077
  c_134_vr_storage_5       0.000    0.0    0.0    0.0       0.013    0.0     232  18:56      0.084
  c_132_vr_storage_5       0.000    0.0    0.0    0.0       0.012    0.0     232  18:55      0.077
  Aalst_gemaal             2.679    1.8    0.0    0.0     144.401   99.7     233  00:20      3.917
  pre_ontvangstkelder      0.186   64.2    0.0    0.0       0.262   90.3       1  07:29      4.404
  c_150_vr_storage_57      0.098    0.0    0.0    0.0      14.236    0.1     204  05:05      5.522
  c_123_vr_storage_40      0.046    0.0    0.0    0.0       4.666    0.0     204  04:56      2.307
  c_143_vr_storage_70      0.805    0.0    0.0    0.0      34.279    0.3     232  20:00      9.101
  c_147_vr_storage_4       0.000    0.0    0.0    0.0       0.019    0.0     204  04:35      0.129
  c_160_vr_storage_8       0.025    0.0    0.0    0.0       0.082    0.0     232  19:00      0.187
  c_145_vr_storage_4       0.000    0.0    0.0    0.0       0.008    0.0     190  17:05      0.059
  c_144_vr_storage_19      0.004    0.0    0.0    0.0       0.490    0.0     204  04:45      0.479
  c_142_vr_storage_35      0.032    0.0    0.0    0.0       2.807    0.0     232  19:20      1.549
  c_148_vr_storage_12      0.001    0.0    0.0    0.0       0.136    0.0     204  04:38      0.306
  c_149_vr_storage_17      0.002    0.0    0.0    0.0       0.271    0.0     204  04:45      0.367
  c_151_vr_storage_22      0.004    0.0    0.0    0.0       0.695    0.0     204  04:45      0.682
  c_161_vr_storage_32      0.013    0.0    0.0    0.0       2.007    0.0     232  19:17      1.275
  c_138_vr_storage_22      0.010    0.0    0.0    0.0       0.837    0.0     204  04:45      0.794
  c_139_vr_storage_8       0.000    0.0    0.0    0.0       0.058    0.0     204  04:37      0.131
  c_137_vr_storage_4       0.000    0.0    0.0    0.0       0.008    0.0     190  17:05      0.060
  c_122_vr_storage_29      0.017    0.0    0.0    0.0       2.523    0.0     204  04:35      1.666
  c_121_vr_storage_12      0.002    0.0    0.0    0.0       0.102    0.0     232  19:00      0.210
  c_120_vr_storage_8       0.001    0.0    0.0    0.0       0.043    0.0     204  04:34      0.099
  c_119_vr_storage_80      0.337    0.0    0.0    0.0      26.716    0.3     232  19:45      7.014
  c_100_vr_storage_10      0.001    0.0    0.0    0.0       0.082    0.0     204  04:30      0.185
  c_118_vr_storage_13      0.001    0.0    0.0    0.0       0.224    0.0     204  04:31      0.304
  c_116_vr_storage_15      0.003    0.0    0.0    0.0       0.340    0.0     204  04:37      0.435
  c_114_vr_storage_10      0.001    0.0    0.0    0.0       0.070    0.0     204  04:30      0.159
  c_112_vr_storage_21      0.005    0.0    0.0    0.0       1.202    0.0     204  04:25      1.366
  c_107_vr_storage_36      0.036    0.0    0.0    0.0       2.846    0.0     232  19:15      1.624
  c_107_2_vr_storage_12     0.000    0.0    0.0    0.0       0.077    0.0     204  04:35      0.176
  c_106_vr_storage_13      0.002    0.0    0.0    0.0       0.162    0.0     204  04:35      0.235
  c_99_vr_storage_41       0.042    0.0    0.0    0.0       3.639    0.0     232  19:15      1.772
  c_103_vr_storage_8       0.000    0.0    0.0    0.0       0.048    0.0     204  04:29      0.108
  c_98_vr_storage_20       0.006    0.0    0.0    0.0       0.503    0.0     204  04:39      0.504
  gb127                    0.092    0.5    0.0    0.0       9.529   51.2     232  19:15      3.711
  c_123                    0.052    0.2    0.0    0.0      11.821   39.4     232  22:35      0.284
  c_122                    0.532    5.3    0.0    0.0       7.974   79.7       3  10:30      0.223
  c_112                    0.017    0.8    0.0    0.0       1.733   86.7     204  04:55      0.786
  c_99                     0.008    0.0    0.0    0.0       5.574   27.9     232  21:20      0.556
  c_119_1                  0.092    0.9    0.0    0.0       5.074   50.7     232  20:20      2.649
  c_119_2                  0.031    0.3    0.0    0.0       7.043   70.4     232  21:00      1.405
  c_119_3                  0.041    0.2    0.0    0.0      11.201   56.0     232  22:55      0.389
  
  
  ***********************
  Outfall Loading Summary
  ***********************
  
  -----------------------------------------------------------
                         Flow       Avg       Max       Total
                         Freq      Flow      Flow      Volume
  Outfall Node           Pcnt       CMS       CMS    10^6 ltr
  -----------------------------------------------------------
  cso_Geldrop            0.11     0.548     2.548      18.372
  cso_gb_136             0.16     0.162     0.744       8.062
  cso_RZ                 0.00     0.000     0.000       0.000
  cso_ES_1               0.08     1.392     3.737      33.944
  cso_AALST              0.14     0.754     1.817      32.453
  out_ES                99.81     0.874     3.888   27495.452
  out_RZ                99.86     0.776     3.464   24442.740
  cso_gb127              0.18     0.803     3.396      46.806
  cso_c_122              0.05     0.090     0.192       1.501
  cso_c_119_1            0.37     0.482     2.406      55.840
  cso_c_112              0.10     0.186     0.725       5.934
  cso_c_99               0.00     0.000     0.000       0.000
  cso_c_123              0.00     0.000     0.000       0.000
  cso_c_119_2            0.05     0.263     1.065       4.474
  cso_c_119_3            0.00     0.000     0.000       0.000
  -----------------------------------------------------------
  System                13.39     6.330    11.410   52145.578
  
  
  ********************
  Link Flow Summary
  ********************
  
  -----------------------------------------------------------------------------
                                 Maximum  Time of Max   Maximum    Max/    Max/
                                  |Flow|   Occurrence   |Veloc|    Full    Full
  Link                 Type          CMS  days hr:min     m/sec    Flow   Depth
  -----------------------------------------------------------------------------
  Con_158              CONDUIT     1.306     1  07:50      0.90    0.04    1.00
  Con_159              CONDUIT     0.771     1  06:57      0.40    0.12    1.00
  Con_160              CONDUIT     0.501     1  07:06      1.04    0.02    1.00
  Con_101              CONDUIT     0.817     0  00:05      0.91    2.54    1.00
  Con_102              CONDUIT     0.647   204  16:05      0.67    1.42    1.00
  Con_103              CONDUIT     0.624   204  16:05      0.76    0.82    1.00
  Con_104              CONDUIT     0.605   204  16:05      1.51    0.61    1.00
  Con_105              CONDUIT     0.623   204  16:04      0.84    1.33    1.00
  Con_106              CONDUIT     0.713     1  06:06      0.86    0.93    1.00
  Con_107              CONDUIT     2.038   339  19:04      0.77    0.50    1.00
  Con_108              CONDUIT     2.180   339  19:02      1.30    0.49    1.00
  Con_109              CONDUIT     3.052   204  16:06      1.09    0.52    1.00
  Con_110              CONDUIT     3.043   204  16:06      1.21    0.47    1.00
  Con_157              CONDUIT     1.504     1  06:48      0.91    0.04    1.00
  Con_111              CONDUIT     2.981   204  16:05      0.80    0.52    1.00
  Con_112              CONDUIT     2.981   204  16:05      1.01    0.41    1.00
  Con_113              CONDUIT     2.981   204  16:05      1.20    0.69    1.00
  Con_114              CONDUIT     2.981   204  16:05      1.19    0.75    1.00
  Con_115              CONDUIT     2.981   204  16:05      1.17    0.72    1.00
  Con_116              CONDUIT     2.981   204  16:05      1.21    0.72    1.00
  Con_117              CONDUIT     5.872   204  06:40      2.13    0.39    1.00
  Con_118              CONDUIT     2.185   339  19:02      1.08    0.55    1.00
  Con_119              CONDUIT     2.375   141  19:02      0.87    0.48    1.00
  Con_120              CONDUIT     2.337   141  19:02      0.80    0.49    1.00
  Con_121              CONDUIT     2.254   148  19:02      0.97    0.44    1.00
  Con_122              CONDUIT     4.461   122  19:01      3.42    0.96    1.00
  Con_123              CONDUIT     6.437   144  22:03      8.61    0.07    1.00
  Con_125              CONDUIT     2.114     1  07:48      1.01    0.91    0.74
  Con_126              CONDUIT     2.116   204  05:12      1.06    1.45    0.74
  Con_127              CONDUIT     2.104     1  07:49      1.72    0.33    0.70
  Con_128              CONDUIT     2.554     0  00:04      1.56    1.07    0.70
  Con_129              CONDUIT     9.744     0  00:01      4.13    1.27    0.88
  Con_130              CONDUIT     7.133     0  00:05      1.83    1.50    0.82
  Con_140              CONDUIT     5.318     0  00:05      2.11    1.00    0.86
  Con_141              CONDUIT     4.519     0  00:06      1.59    0.95    0.91
  Con_142              CONDUIT     3.567     0  00:07      1.58    0.75    0.95
  Con_143              CONDUIT     3.269     0  00:09      1.74    0.68    0.98
  Con_144              CONDUIT     3.099   204  16:06      1.00    0.83    1.00
  Con_152              CONDUIT     2.980   204  16:05      1.09    1.12    1.00
  Con_153              CONDUIT     2.980   204  16:05      1.08    1.04    1.00
  Con_154              CONDUIT     2.980   204  16:05      1.14    1.16    1.00
  Con_155              CONDUIT     2.979   204  16:05      1.11    0.92    1.00
  Con_156              CONDUIT     2.979   204  16:05      1.38    0.81    1.00
  eeneind_out          CONDUIT     0.114   356  13:17      3.66    1.24    0.62
  P_c_24_d_5           PUMP       21.649   232  19:00              2.16
  P_c_23_d_7           PUMP        0.030   232  19:00              0.00
  P_c_22_d_5           PUMP        0.015   232  19:00              0.00
  P_c_21_d_7           PUMP        0.032   232  19:00              0.00
  P_c_12_d_8           PUMP        0.038   232  19:05              0.00
  P_c_20_d_13          PUMP        0.094   232  19:10              0.01
  P_c_19_d_7           PUMP        0.033   232  19:00              0.00
  P_c_10_d_10          PUMP        0.037   232  19:35              0.00
  P_c_16_d_20          PUMP        0.248   232  19:15              0.02
  P_c_15_d_24          PUMP        0.320   232  19:20              0.03
  P_c_14_d_24          PUMP        0.334   232  19:20              0.03
  P_c_129_d_5          PUMP        0.163   190  17:15              0.02
  P_c_128_d_5          PUMP        7.161   232  18:55              0.72
  P_c_1285_d_5         PUMP        0.173   232  18:55              0.02
  P_c_127_d_5          PUMP        5.682   190  17:15              0.57
  P_c_126_d_5          PUMP        0.981   190  17:15              0.10
  P_c_125_d_5          PUMP        0.420   190  17:10              0.04
  P_c_136_d_5          PUMP        1.528   232  19:05              0.15
  P_c_135_d_5          PUMP        0.338   232  18:55              0.03
  P_c_131_d_5          PUMP        0.349   232  19:00              0.03
  P_c_130_d_5          PUMP        0.077   232  18:55              0.01
  P_c_134_d_5          PUMP        0.084   232  18:55              0.01
  P_c_132_d_5          PUMP        0.077   232  18:55              0.01
  Con_1119.1           PUMP        0.191     1  02:45              1.00
  P_riool_zuid_out     PUMP        3.464   204  16:00              0.73
  P_eindhoven_out      PUMP        3.888    37  05:45              1.00
  P_c_150_d_57         PUMP        5.522   204  05:25              0.55
  P_c_123_d_40         PUMP        2.307   204  05:10              0.23
  P_c_143_d_70         PUMP        9.101   232  20:35              0.91
  P_c_147_d_4          PUMP        0.129   190  17:05              0.01
  P_c_160_d_8          PUMP        0.187   190  17:10              0.02
  P_c_145_d_4          PUMP        0.059   190  17:05              0.01
  P_c_144_d_19         PUMP        0.479   204  04:50              0.05
  P_c_142_d_35         PUMP        1.549   204  05:05              0.15
  P_c_148_d_12         PUMP        0.306   204  04:40              0.03
  P_c_149_d_17         PUMP        0.367   204  04:50              0.04
  P_c_151_d_22         PUMP        0.682   204  04:50              0.07
  P_c_161_d_32         PUMP        1.275   232  19:20              0.13
  P_c_138_d_22         PUMP        0.794   204  04:55              0.08
  P_c_139_d_8          PUMP        0.131   204  04:40              0.01
  P_c_137_d_4          PUMP        0.060   190  17:05              0.01
  P_c_122_d_29         PUMP        1.666   190  17:25              0.17
  P_c_121_d_12         PUMP        0.210   232  19:00              0.02
  P_c_120_d_8          PUMP        0.099   204  04:35              0.01
  P_c_119_d_80         PUMP        7.014   204  05:45              0.70
  P_c_100_d_10         PUMP        0.185   204  04:30              0.02
  P_c_118_d_13         PUMP        0.304   204  04:40              0.03
  P_c_116_d_15         PUMP        0.435   204  04:40              0.04
  P_c_114_d_10         PUMP        0.159   204  04:35              0.02
  P_c_112_d_21         PUMP        1.366   190  17:15              0.14
  P_c_107_d_36         PUMP        1.624   204  05:05              0.16
  P_c_107_2_d_12       PUMP        0.176   204  04:35              0.02
  P_c_106_d_13         PUMP        0.235   204  04:40              0.02
  P_c_99_d_41          PUMP        1.772   204  05:05              0.18
  P_c_103_d_8          PUMP        0.108   204  04:30              0.01
  P_c_98_d_20          PUMP        0.504   204  04:45              0.05
  P_aalst_1            PUMP        0.560     0  00:05              1.00
  P_aalst_2            PUMP        0.560     0  00:05              1.00
  P_aalst_3            PUMP        0.490     0  00:05              1.00
  P_aalst_4            PUMP        0.490     0  00:00              1.00
  P_pipe_Geldrop       PUMP        0.800     1  01:40              1.00
  P_gb127              PUMP        0.316     1  01:30              1.00
  P_c_99               PUMP        0.556    37  03:25              1.00
  P_c_112              PUMP        0.061     0  08:30              1.00
  P_c_119_1            PUMP        0.243     0  00:00              1.00
  P_c_122              PUMP        0.031     0  06:05              1.00
  P_c_123              PUMP        0.284     1  03:20              1.00
  P_c_119_2            PUMP        0.340     0  00:00              1.00
  P_c_119_3            PUMP        0.389     0  00:00              1.00
  P_c_119_fr_040       PUMP       10.000     0  00:00              1.00
  P_c_119_fr_028       PUMP       10.000     0  00:00              1.00
  P_c_119_fr_032       PUMP       10.000     0  00:00              1.00
  P_geldrop_split_1    PUMP       10.000     0  00:00              1.00
  P_geldrop_split_2    PUMP       10.000     0  00:00              1.00
  weir_gb_136          WEIR        0.744   190  20:05                      0.03
  Con_A*HLCMRZ1135.1   WEIR        0.000     0  00:00                      0.00
  weir_ES              WEIR        3.737   232  22:10                      0.10
  Aalst_weir           WEIR        1.817   233  00:20                      0.06
  weir_gb127           WEIR        3.396   232  19:15                      0.09
  weir_pipe_Geldrop    WEIR        2.548   190  19:45                      0.08
  weir_c_123           WEIR        0.000     0  00:00                      0.00
  weir_c_99            WEIR        0.000     0  00:00                      0.00
  weir_c_112           WEIR        0.725   204  04:55                      0.03
  weir_c_119_1         WEIR        2.406   232  20:20                      0.07
  weir_c_122           WEIR        0.192     3  10:30                      0.01
  weir_c_119_2         WEIR        1.065   232  21:00                      0.04
  weir_c_119_3         WEIR        0.000     0  00:00                      0.00
  
  
  ***************************
  Flow Classification Summary
  ***************************
  
  -------------------------------------------------------------------------------------
                      Adjusted    ---------- Fraction of Time in Flow Class ---------- 
                       /Actual         Up    Down  Sub   Sup   Up    Down  Norm  Inlet 
  Conduit               Length    Dry  Dry   Dry   Crit  Crit  Crit  Crit  Ltd   Ctrl  
  -------------------------------------------------------------------------------------
  Con_158                 1.00   0.00  0.00  0.00  1.00  0.00  0.00  0.00  0.00  0.00
  Con_159                 1.00   0.00  0.00  0.00  1.00  0.00  0.00  0.00  0.00  0.00
  Con_160                 1.00   0.00  0.00  0.00  1.00  0.00  0.00  0.00  0.00  0.00
  Con_101                 1.00   0.00  0.00  0.00  0.81  0.00  0.00  0.19  0.00  0.00
  Con_102                 1.00   0.00  0.00  0.00  1.00  0.00  0.00  0.00  0.00  0.00
  Con_103                 1.00   0.00  0.00  0.00  1.00  0.00  0.00  0.00  0.31  0.00
  Con_104                 1.00   0.00  0.00  0.00  1.00  0.00  0.00  0.00  0.00  0.00
  Con_105                 1.00   0.00  0.00  0.00  1.00  0.00  0.00  0.00  0.00  0.00
  Con_106                 1.00   0.00  0.00  0.00  0.04  0.00  0.00  0.96  0.02  0.00
  Con_107                 1.00   0.00  0.00  0.00  1.00  0.00  0.00  0.00  0.12  0.00
  Con_108                 1.00   0.00  0.00  0.00  1.00  0.00  0.00  0.00  0.30  0.00
  Con_109                 1.00   0.00  0.00  0.00  1.00  0.00  0.00  0.00  0.00  0.00
  Con_110                 1.00   0.00  0.00  0.00  1.00  0.00  0.00  0.00  0.00  0.00
  Con_157                 1.00   0.00  0.00  0.00  1.00  0.00  0.00  0.00  0.00  0.00
  Con_111                 1.00   0.00  0.00  0.00  1.00  0.00  0.00  0.00  0.00  0.00
  Con_112                 1.00   0.00  0.00  0.00  1.00  0.00  0.00  0.00  0.88  0.00
  Con_113                 1.00   0.00  0.00  0.00  1.00  0.00  0.00  0.00  0.00  0.00
  Con_114                 1.00   0.00  0.00  0.00  1.00  0.00  0.00  0.00  0.00  0.00
  Con_115                 1.00   0.00  0.00  0.00  1.00  0.00  0.00  0.00  0.73  0.00
  Con_116                 1.00   0.00  0.00  0.00  1.00  0.00  0.00  0.00  0.33  0.00
  Con_117                 1.00   0.00  0.00  0.00  1.00  0.00  0.00  0.00  0.09  0.00
  Con_118                 1.00   0.00  0.00  0.00  1.00  0.00  0.00  0.00  0.00  0.00
  Con_119                 1.00   0.00  0.00  0.00  1.00  0.00  0.00  0.00  0.28  0.00
  Con_120                 1.00   0.00  0.00  0.00  1.00  0.00  0.00  0.00  0.08  0.00
  Con_121                 1.00   0.00  0.00  0.00  1.00  0.00  0.00  0.00  0.00  0.00
  Con_122                 1.00   0.00  0.00  0.00  0.69  0.31  0.00  0.00  0.00  0.00
  Con_123                 1.00   0.00  0.00  0.00  0.90  0.01  0.00  0.10  0.21  0.00
  Con_125                 1.00   0.00  0.00  0.00  1.00  0.00  0.00  0.00  0.72  0.00
  Con_126                 1.00   0.00  0.00  0.00  1.00  0.00  0.00  0.00  0.00  0.00
  Con_127                 1.00   0.00  0.00  0.00  1.00  0.00  0.00  0.00  0.91  0.00
  Con_128                 1.00   0.00  0.00  0.00  0.00  0.00  0.00  1.00  0.00  0.00
  Con_129                 1.00   0.00  0.00  0.00  1.00  0.00  0.00  0.00  0.92  0.00
  Con_130                 1.00   0.00  0.00  0.00  1.00  0.00  0.00  0.00  0.02  0.00
  Con_140                 1.00   0.00  0.00  0.00  1.00  0.00  0.00  0.00  0.00  0.00
  Con_141                 1.00   0.00  0.00  0.00  1.00  0.00  0.00  0.00  0.20  0.00
  Con_142                 1.00   0.00  0.00  0.00  1.00  0.00  0.00  0.00  0.00  0.00
  Con_143                 1.00   0.00  0.00  0.00  1.00  0.00  0.00  0.00  0.00  0.00
  Con_144                 1.00   0.00  0.00  0.00  0.75  0.00  0.00  0.25  0.00  0.00
  Con_152                 1.00   0.00  0.00  0.00  1.00  0.00  0.00  0.00  0.14  0.00
  Con_153                 1.00   0.00  0.00  0.00  1.00  0.00  0.00  0.00  0.02  0.00
  Con_154                 1.00   0.00  0.00  0.00  1.00  0.00  0.00  0.00  0.00  0.00
  Con_155                 1.00   0.00  0.00  0.00  1.00  0.00  0.00  0.00  0.00  0.00
  Con_156                 1.00   0.00  0.00  0.00  1.00  0.00  0.00  0.00  0.00  0.00
  eeneind_out             1.00   0.00  0.00  0.00  0.94  0.06  0.00  0.00  0.91  0.00
  
  
  *************************
  Conduit Surcharge Summary
  *************************
  
  ----------------------------------------------------------------------------
                                                           Hours        Hours 
                         --------- Hours Full --------   Above Full   Capacity
  Conduit                Both Ends  Upstream  Dnstream   Normal Flow   Limited
  ----------------------------------------------------------------------------
  Con_158                    45.98     45.99     46.91      0.01         0.01
  Con_159                    41.67     41.67     45.99      0.01         0.01
  Con_160                    41.67     41.67     52.61      0.01         0.01
  Con_101                    18.63    389.20     22.11    543.50        15.17
  Con_102                    25.74     28.60     26.35    410.58        16.54
  Con_103                    26.95     26.95     31.15      0.01         0.01
  Con_104                    26.35     26.35     26.95      0.01         0.01
  Con_105                    30.84     31.15     30.89    349.46         8.71
  Con_106                    30.89     30.89     57.57      0.01         0.01
  Con_107                   180.53    180.53    263.72      0.01         0.01
  Con_108                   263.72    263.72    287.88      0.01         0.01
  Con_109                    25.46     25.46     26.68      0.01         0.01
  Con_110                    26.68     26.68     34.82      0.01         0.01
  Con_157                    46.91     46.91     52.65      0.01         0.01
  Con_111                    52.65     52.65     61.23      0.01         0.02
  Con_112                    36.79     36.79     61.90      0.01         0.01
  Con_113                   130.64    130.64    143.82      0.01         0.01
  Con_114                   143.82    143.82    149.42      0.01         0.01
  Con_115                   149.42    149.42    220.28      0.01         0.01
  Con_116                   220.28    220.28    289.79      0.01         0.01
  Con_117                   261.34    261.34    893.29      0.01         0.01
  Con_118                   287.88    287.88    320.63      0.01         0.02
  Con_119                   320.63    320.63    402.31      0.01         0.02
  Con_120                   402.31    402.31    501.51      0.01         0.03
  Con_121                   501.50    501.50    545.69      0.01         0.04
  Con_122                   545.60    545.68    601.65      0.01         0.17
  Con_123                   601.64    601.64   7736.95      0.01         0.01
  Con_126                     0.01      0.01      0.01    778.87         0.01
  Con_128                     0.01      0.01      0.01      0.03         0.01
  Con_129                     0.01      0.01      0.01      0.02         0.01
  Con_130                     0.01      0.01      0.01      0.06         0.01
  Con_143                     0.01      0.01     10.12      0.01         0.01
  Con_144                    10.12     10.12     22.37      0.01         0.01
  Con_152                   302.96    302.96    352.98      3.80         2.31
  Con_153                   352.98    352.98    371.33      0.09         0.12
  Con_154                   371.33    371.33    390.74     14.78        14.85
  Con_155                   390.74    390.74    432.40      0.01         0.02
  Con_156                   432.40    432.40    545.69      0.01         0.02
  eeneind_out                 0.01      0.01   7160.75     13.88         0.01
  
  
  ***************
  Pumping Summary
  ***************
  
  ---------------------------------------------------------------------------------------------------------
                                                  Min       Avg       Max     Total     Power    % Time Off
                        Percent   Number of      Flow      Flow      Flow    Volume     Usage    Pump Curve
  Pump                 Utilized   Start-Ups       CMS       CMS       CMS  10^6 ltr     Kw-hr    Low   High
  ---------------------------------------------------------------------------------------------------------
  P_c_24_d_5             100.00           1      0.00      0.87     21.65 27537.162  22576.18    0.0  100.0
  P_c_23_d_7             100.00           1      0.00      0.00      0.03    41.803      0.03    0.0  100.0
  P_c_22_d_5              23.79          89      0.00      0.00      0.02     5.110      0.01    0.0  100.0
  P_c_21_d_7             100.00           1      0.00      0.00      0.03    40.512      0.03    0.0  100.0
  P_c_12_d_8             100.00           1      0.00      0.00      0.04    62.072      0.05    0.0   99.6
  P_c_20_d_13             27.15          77      0.00      0.00      0.09    32.038      0.05    0.0   97.9
  P_c_19_d_7             100.00           1      0.00      0.00      0.03    35.037      0.03    0.0  100.0
  P_c_10_d_10             31.55          69      0.00      0.00      0.04    18.849      0.03    0.0   95.4
  P_c_16_d_20             27.76          81      0.00      0.01      0.25    84.592      0.12    0.0   97.5
  P_c_15_d_24            100.00           1      0.00      0.00      0.32   144.035      0.17    0.0   99.2
  P_c_14_d_24             27.85          80      0.00      0.01      0.33   114.072      0.16    0.0   97.0
  P_c_129_d_5             17.34         104      0.00      0.00      0.16    19.585      0.05    0.0  100.0
  P_c_128_d_5            100.00           1      0.00      0.16      7.16  5116.419 211961.58    0.0  100.0
  P_c_1285_d_5           100.00           1      0.00      0.00      0.17    37.116      0.09    0.0  100.0
  P_c_127_d_5            100.00           1      0.00      0.05      5.68  1630.085    365.43    0.0    4.1
  P_c_126_d_5            100.00           1      0.00      0.03      0.98   846.777      0.03    0.0   95.8
  P_c_125_d_5            100.00           1      0.00      0.00      0.42    31.137      0.00    0.0   99.9
  P_c_136_d_5            100.00           1      0.00      0.04      1.53  1329.726  59728.58    0.0  100.0
  P_c_135_d_5            100.00           1      0.00      0.01      0.34   179.043      0.01    0.0  100.0
  P_c_131_d_5            100.00           1      0.00      0.01      0.35   214.096      0.01    0.0  100.0
  P_c_130_d_5            100.00           1      0.00      0.00      0.08    42.838      0.00    0.0   99.8
  P_c_134_d_5            100.00           1      0.00      0.00      0.08    40.586      0.00    0.0  100.0
  P_c_132_d_5            100.00           1      0.00      0.00      0.08    35.270      0.00    0.0  100.0
  Con_1119.1             100.00           1      0.00      0.04      0.19  1321.667   4411.44    0.0    3.8
  P_riool_zuid_out        99.86         143      0.00      0.78      3.46 24442.740 733517.13    0.0   90.7
  P_eindhoven_out         99.81         361      0.00      0.87      3.89 27495.453  22359.53    0.0  100.0
  P_c_150_d_57           100.00           1      0.00      0.04      5.52  1341.656   2516.24    0.0   99.0
  P_c_123_d_40           100.00           1      0.00      0.02      2.31   690.487   1273.19    0.0    1.7
  P_c_143_d_70           100.00           1      0.00      0.22      9.10  6972.971   8825.75    0.0   54.3
  P_c_147_d_4             18.07          96      0.00      0.00      0.13    16.992      0.24    0.0  100.0
  P_c_160_d_8            100.00           1      0.00      0.05      0.19  1626.242      4.43    0.0  100.0
  P_c_145_d_4            100.00           1      0.00      0.00      0.06    25.173      0.11    0.0  100.0
  P_c_144_d_19           100.00           1      0.00      0.00      0.48   140.744      1.48    0.0  100.0
  P_c_142_d_35           100.00           1      0.00      0.02      1.55   551.331      5.05    0.0  100.0
  P_c_148_d_12           100.00           1      0.00      0.00      0.31    72.408      0.73    0.0  100.0
  P_c_149_d_17            22.30          95      0.00      0.01      0.37    70.490      1.06    0.0  100.0
  P_c_151_d_22           100.00           1      0.00      0.00      0.68   135.759      1.80    0.0  100.0
  P_c_161_d_32            23.22          93      0.00      0.04      1.27   260.673      3.86    0.0  100.0
  P_c_138_d_22           100.00           1      0.00      0.01      0.79   306.875      2.50    0.0  100.0
  P_c_139_d_8             18.34         103      0.00      0.00      0.13    18.133      0.01    0.0  100.0
  P_c_137_d_4            100.00           1      0.00      0.00      0.06    57.966      0.00    0.0   99.8
  P_c_122_d_29           100.00           1      0.00      0.01      1.67   347.768   1447.92    0.0   22.8
  P_c_121_d_12           100.00           1      0.00      0.01      0.21   342.536    275.82    0.0   99.0
  P_c_120_d_8            100.00           1      0.00      0.00      0.10    55.324      0.00    0.0   99.8
  P_c_119_d_80           100.00           1      0.00      0.08      7.01  2474.152 16141381.07    0.0  100.0
  P_c_100_d_10           100.00           1      0.00      0.00      0.18    45.678      0.35    0.0   99.9
  P_c_118_d_13            16.15         103      0.00      0.01      0.30    41.868      0.56    0.0  100.0
  P_c_116_d_15           100.00           1      0.00      0.00      0.44   134.608    211.69    0.0   99.0
  P_c_114_d_10           100.00           1      0.00      0.00      0.16    44.935      0.00    0.0   99.9
  P_c_112_d_21           100.00           1      0.00      0.01      1.37   164.537    114.56    0.0    4.0
  P_c_107_d_36           100.00           1      0.00      0.15      1.62  4674.090   2889.46    0.0   99.0
  P_c_107_2_d_12         100.00           1      0.00      0.00      0.18    41.458      0.05    0.0  100.0
  P_c_106_d_13           100.00           1      0.00      0.01      0.24   417.823      0.09    0.0  100.0
  P_c_99_d_41            100.00           1      0.00      0.02      1.77   630.817    404.73    0.0    0.4
  P_c_103_d_8            100.00           1      0.00      0.00      0.11    33.678      0.03    0.0   99.9
  P_c_98_d_20            100.00           1      0.00      0.01      0.50   181.270    295.31    0.0   99.0
  P_aalst_1               14.22        5173      0.00      0.56      0.56  2491.411 124234.29    0.0   93.1
  P_aalst_2               10.14        1829      0.00      0.56      0.56  1787.444  88602.53    0.0   95.9
  P_aalst_3                9.19        1031      0.00      0.49      0.49  1419.096  70126.71    0.0   97.7
  P_aalst_4              100.00           1      0.00      0.39      0.49 12332.037 620822.46    0.0   99.0
  P_pipe_Geldrop         100.00           1      0.00      0.16      0.80  5098.069  28724.07    0.0    4.6
  P_gb127                100.00           1      0.00      0.05      0.32  1583.290    250.72    0.0    4.1
  P_c_99                 100.00           1      0.00      0.02      0.56   630.820   1179.45    0.0    0.4
  P_c_112                100.00           1      0.00      0.01      0.06   158.607    229.41    0.0    4.0
  P_c_119_1              100.00          21      0.00      0.03      0.24   936.806   1629.46    0.0  100.0
  P_c_122                100.00           1      0.00      0.01      0.03   346.268   1130.75    0.0   22.8
  P_c_123                100.00           1      0.00      0.02      0.28   690.490   1550.48    0.0    1.7
  P_c_119_2              100.00           9      0.00      0.02      0.34   691.279   1387.43    0.0  100.0
  P_c_119_3              100.00           9      0.00      0.03      0.39   794.717   1850.84    0.0  100.0
  P_c_119_fr_040         100.00           1      0.00      0.03     10.00   992.636 6453874.21    0.0    0.0
  P_c_119_fr_028         100.00           1      0.00      0.02     10.00   695.745 4518615.31    0.0    0.0
  P_c_119_fr_032         100.00           1      0.00      0.03     10.00   794.709 5163881.45    0.0    0.0
  P_geldrop_split_1      100.00           1      0.00      0.08     10.00  2550.369  14495.18    0.0   54.6
  P_geldrop_split_2      100.00           1      0.00      0.08     10.00  2550.369  14100.50    0.0   12.6
  

  Analysis begun on:  Sun Apr 13 15:56:28 2025
  Analysis ended on:  Sun Apr 13 16:37:34 2025
  Total elapsed time: 00:41:06