
  EPA STORM WATER MANAGEMENT MODEL - VERSION 5.2 (Build 5.2.4)
  PYSWMM TOOLKIT API - VERSION v1.0 (2023-11-27)
  ------------------------------------------------------------

  WARNING 04: minimum elevation drop used for Conduit geldrop_out_east
  WARNING 02: maximum depth increased for Node gb127
  
  ****************
  Analysis Options
  ****************
  Flow Units ............... CMS
  Process Models:
    Rainfall/Runoff ........ YES
    RDII ................... NO
    Snowmelt ............... NO
    Groundwater ............ NO
    Flow Routing ........... YES
    Ponding Allowed ........ NO
    Water Quality .......... NO
  Infiltration Method ...... HORTON
  Flow Routing Method ...... DYNWAVE
  Surcharge Method ......... EXTRAN
  Starting Date ............ 01/01/2024 00:00:00
  Ending Date .............. 12/31/2024 00:00:00
  Antecedent Dry Days ...... 0.0
  Report Time Step ......... 00:05:00
  Wet Time Step ............ 00:01:00
  Dry Time Step ............ 00:10:00
  Routing Time Step ........ 5.00 sec
  Variable Time Step ....... YES
  Maximum Trials ........... 12
  Number of Threads ........ 2
  Head Tolerance ........... 0.000200 m
  
  
  *********************
  Rainfall File Summary
  *********************
  Station    First        Last         Recording   Periods    Periods    Periods
  ID         Date         Date         Frequency  w/Precip    Missing    Malfunc.
  -------------------------------------------------------------------------------
  12         01/01/2024   12/31/2024       5 min    105385          0          0

  13         01/01/2024   12/31/2024       5 min    105385          0          0

  14         01/01/2024   12/31/2024       5 min    105385          0          0

  15         01/01/2024   12/31/2024       5 min    105385          0          0

  16         01/01/2024   12/31/2024       5 min    105385          0          0

  17         01/01/2024   12/31/2024       5 min    105385          0          0

  18         01/01/2024   12/31/2024       5 min    105385          0          0

  19         01/01/2024   12/31/2024       5 min    105385          0          0

  20         01/01/2024   12/31/2024       5 min    105385          0          0

  21         01/01/2024   12/31/2024       5 min    105385          0          0

  22         01/01/2024   12/31/2024       5 min    105385          0          0

  23         01/01/2024   12/31/2024       5 min    105385          0          0

  24         01/01/2024   12/31/2024       5 min    105385          0          0

  25         01/01/2024   12/31/2024       5 min    105385          0          0

  26         01/01/2024   12/31/2024       5 min    105385          0          0

  27         01/01/2024   12/31/2024       5 min    105385          0          0

  28         01/01/2024   12/31/2024       5 min    105385          0          0

  29         01/01/2024   12/31/2024       5 min    105385          0          0

  30         01/01/2024   12/31/2024       5 min    105385          0          0

  31         01/01/2024   12/31/2024       5 min    105385          0          0

  32         01/01/2024   12/31/2024       5 min    105385          0          0

  33         01/01/2024   12/31/2024       5 min    105385          0          0

  34         01/01/2024   12/31/2024       5 min    105385          0          0

  35         01/01/2024   12/31/2024       5 min    105385          0          0

  36         01/01/2024   12/31/2024       5 min    105385          0          0

  37         01/01/2024   12/31/2024       5 min    105385          0          0

  38         01/01/2024   12/31/2024       5 min    105385          0          0

  39         01/01/2024   12/31/2024       5 min    105385          0          0

  40         01/01/2024   12/31/2024       5 min    105385          0          0

  
  
  **************************        Volume         Depth
  Runoff Quantity Continuity     hectare-m            mm
  **************************     ---------       -------
  Total Precipitation ......      3680.971       872.537
  Evaporation Loss .........       983.162       233.049
  Infiltration Loss ........         0.000         0.000
  Surface Runoff ...........      2687.459       637.035
  Final Storage ............        10.363         2.456
  Continuity Error (%) .....        -0.000
  
  
  **************************        Volume        Volume
  Flow Routing Continuity        hectare-m      10^6 ltr
  **************************     ---------     ---------
  Dry Weather Inflow .......      2593.582     25936.092
  Wet Weather Inflow .......      2687.458     26874.864
  Groundwater Inflow .......         0.000         0.000
  RDII Inflow ..............         0.000         0.000
  External Inflow ..........      1141.192     11412.037
  External Outflow .........      6423.855     64239.224
  Flooding Loss ............         3.691        36.911
  Evaporation Loss .........         0.074         0.742
  Exfiltration Loss ........         0.000         0.000
  Initial Stored Volume ....         0.805         8.050
  Final Stored Volume ......        11.137       111.371
  Continuity Error (%) .....        -0.245
  
  
  ***************************
  Time-Step Critical Elements
  ***************************
  None
  
  
  ********************************
  Highest Flow Instability Indexes
  ********************************
  Link P_riool_zuid_out (6)
  Link Con_117 (4)
  Link Con_152 (4)
  Link Con_116 (3)
  Link Con_153 (3)
  
  
  *********************************
  Most Frequent Nonconverging Nodes
  *********************************
  Node cso_Geldrop (3.95%)
  Node cso_gb_136 (3.95%)
  Node cso_RZ (3.95%)
  Node cso_ES_1 (3.95%)
  Node cso_AALST (3.95%)
  
  
  *************************
  Routing Time Step Summary
  *************************
  Minimum Time Step           :     4.50 sec
  Average Time Step           :     5.00 sec
  Maximum Time Step           :     5.00 sec
  % of Time in Steady State   :     0.00
  Average Iterations per Step :     2.47
  % of Steps Not Converging   :     3.95
  Time Step Frequencies       :
      5.000 -  3.155 sec      :   100.00 %
      3.155 -  1.991 sec      :     0.00 %
      1.991 -  1.256 sec      :     0.00 %
      1.256 -  0.792 sec      :     0.00 %
      0.792 -  0.500 sec      :     0.00 %
  
  
  ***************************
  Subcatchment Runoff Summary
  ***************************
  
  ------------------------------------------------------------------------------------------------------------------------------
                            Total      Total      Total      Total     Imperv       Perv      Total       Total     Peak  Runoff
                           Precip      Runon       Evap      Infil     Runoff     Runoff     Runoff      Runoff   Runoff   Coeff
  Subcatchment                 mm         mm         mm         mm         mm         mm         mm    10^6 ltr      CMS
  ------------------------------------------------------------------------------------------------------------------------------
  c_24_catchment           908.06       0.00     241.78       0.00     663.66       0.00     663.66    12734.37    33.63   0.731
  c_23_catchment           908.06       0.00     245.89       0.00     659.44       0.00     659.44       19.78     0.05   0.726
  c_22_catchment           908.06       0.00     245.89       0.00     659.44       0.00     659.44       10.55     0.03   0.726
  c_21_catchment           908.06       0.00     245.89       0.00     659.44       0.00     659.44       21.10     0.05   0.726
  c_12_catchment           908.06       0.00     245.89       0.00     659.44       0.00     659.44       24.40     0.06   0.726
  c_20_catchment           908.06       0.00     245.89       0.00     659.44       0.00     659.44       65.94     0.16   0.726
  c_19_catchment           908.06       0.00     245.89       0.00     659.44       0.00     659.44       22.42     0.05   0.726
  c_10_catchment           908.06       0.00     266.05       0.00     638.65       0.00     638.65       39.60     0.07   0.703
  c_16_catchment           908.06       0.00     245.89       0.00     659.44       0.00     659.44      174.09     0.42   0.726
  c_15_catchment           908.06       0.00     245.89       0.00     659.44       0.00     659.44      223.55     0.55   0.726
  c_14_catchment           908.06       0.00     245.89       0.00     659.44       0.00     659.44      234.76     0.57   0.726
  c_129_catchment          842.85       0.00     214.88       0.00     625.86       0.00     625.86       31.29     0.17   0.743
  c_128_catchment          842.85       0.00     220.30       0.00     620.38       0.00     620.38     1582.60     7.96   0.736
  c_1285_catchment         842.85       0.00     216.71       0.00     624.02       0.00     624.02       36.19     0.20   0.740
  c_127_catchment          858.72       0.00     212.12       0.00     644.52       0.00     644.52      869.46     5.54   0.751
  c_126_catchment          858.72       0.00     213.75       0.00     642.87       0.00     642.87      101.57     0.62   0.749
  c_125_catchment          858.72       0.00     204.69       0.00     652.03       0.00     652.03       34.56     0.26   0.759
  c_124_catchment          870.96       0.00     202.35       0.00     666.71       0.00     666.71        6.67     0.03   0.765
  c_136_catchment          791.79       0.00     230.95       0.00     558.46       0.00     558.46      282.03     1.39   0.705
  c_135_catchment          791.79       0.00     227.23       0.00     562.25       0.00     562.25      123.70     0.67   0.710
  c_131_catchment          810.87       0.00     230.37       0.00     578.14       0.00     578.14      124.30     0.44   0.713
  c_130_catchment          810.87       0.00     219.76       0.00     588.93       0.00     588.93       22.97     0.11   0.726
  c_134_catchment          791.79       0.00     226.58       0.00     562.90       0.00     562.90       29.83     0.16   0.711
  c_132_catchment          805.98       0.00     219.91       0.00     583.89       0.00     583.89       22.77     0.08   0.724
  c_150_catchment          869.40       0.00     224.49       0.00     642.70       0.00     642.70     1317.55     5.79   0.739
  c_123_catchment          816.85       0.00     222.35       0.00     592.28       0.00     592.28      601.17     3.05   0.725
  c_143_catchment          854.72       0.00     242.95       0.00     608.99       0.00     608.99     1875.69     4.19   0.712
  c_147_catchment          854.72       0.00     216.85       0.00     635.69       0.00     635.69       27.33     0.09   0.744
  c_160_catchment          879.61       0.00     221.46       0.00     655.99       0.00     655.99       32.80     0.23   0.746
  c_145_catchment          854.72       0.00     209.64       0.00     643.01       0.00     643.01        6.43     0.02   0.752
  c_144_catchment          854.72       0.00     224.39       0.00     627.99       0.00     627.99      143.18     0.43   0.735
  c_142_catchment          854.72       0.00     225.34       0.00     627.02       0.00     627.02      481.55     1.44   0.734
  c_148_catchment          854.72       0.00     218.61       0.00     633.89       0.00     633.89       71.00     0.23   0.742
  c_149_catchment          854.72       0.00     225.44       0.00     626.92       0.00     626.92      114.73     0.34   0.733
  c_151_catchment          854.72       0.00     222.21       0.00     630.22       0.00     630.22      185.29     0.58   0.737
  c_161_catchment          879.61       0.00     230.31       0.00     646.96       0.00     646.96      439.94     2.69   0.736
  c_138_catchment          854.72       0.00     223.64       0.00     628.76       0.00     628.76      181.71     0.56   0.736
  c_139_catchment          854.72       0.00     217.64       0.00     634.88       0.00     634.88       29.20     0.10   0.743
  c_137_catchment          909.42       0.00     211.81       0.00     695.58       0.00     695.58        6.96     0.06   0.765
  c_122_catchment          804.96       0.00     210.08       0.00     592.81       0.00     592.81      309.45     1.95   0.736
  c_121_catchment          815.46       0.00     234.94       0.00     577.98       0.00     577.98       59.53     0.23   0.709
  c_120_catchment          832.76       0.00     221.05       0.00     609.44       0.00     609.44       29.86     0.12   0.732
  c_119_catchment          825.03       0.00     222.83       0.00     600.01       0.00     600.01     2358.05    10.98   0.727
  c_100_catchment          762.19       0.00     207.61       0.00     552.57       0.00     552.57       37.02     0.14   0.725
  c_118_catchment          825.03       0.00     212.14       0.00     610.83       0.00     610.83       69.02     0.39   0.740
  c_116_catchment          799.54       0.00     220.73       0.00     576.66       0.00     576.66       74.39     0.40   0.721
  c_114_catchment          800.56       0.00     216.80       0.00     581.65       0.00     581.65       35.48     0.17   0.727
  c_112_catchment          790.95       0.00     203.76       0.00     585.21       0.00     585.21      166.79     0.99   0.740
  c_107_catchment          831.05       0.00     223.66       0.00     605.09       0.00     605.09      467.13     1.98   0.728
  c_107_2_catchment        854.53       0.00     221.37       0.00     630.92       0.00     630.92       56.78     0.26   0.738
  c_106_catchment          831.05       0.00     217.60       0.00     611.25       0.00     611.25       69.07     0.35   0.736
  c_99_catchment           812.78       0.00     221.79       0.00     588.80       0.00     588.80      610.59     2.29   0.724
  c_103_catchment          827.81       0.00     209.72       0.00     616.07       0.00     616.07       23.41     0.14   0.744
  c_98_catchment           811.47       0.00     217.30       0.00     592.09       0.00     592.09      155.13     0.63   0.730
  
  
  ******************
  Node Depth Summary
  ******************
  
  ---------------------------------------------------------------------------------
                                 Average  Maximum  Maximum  Time of Max    Reported
                                   Depth    Depth      HGL   Occurrence   Max Depth
  Node                 Type       Meters   Meters   Meters  days hr:min      Meters
  ---------------------------------------------------------------------------------
  Nod_100              JUNCTION     0.72     1.65    16.13   155  06:53        1.45
  Nod_890              JUNCTION     0.57     2.17    15.10   358  15:02        2.17
  Nod_891              JUNCTION     0.50     2.10    15.10   358  15:03        2.10
  Nod_892              JUNCTION     0.44     2.04    15.10   358  15:04        2.04
  Nod_A*HLCMRZ1135     JUNCTION     0.66     2.26    15.10   358  15:04        2.26
  Nod_103              JUNCTION     0.52     1.00    14.97     5  06:27        1.00
  Nod_104              JUNCTION     0.42     0.83    14.61     5  06:28        0.83
  Nod_105              JUNCTION     0.43     0.84    14.60     5  06:28        0.84
  Nod_106              JUNCTION     0.51     0.92    14.49     5  06:30        0.92
  Nod_107              JUNCTION     0.51     0.90    14.45     5  06:31        0.90
  Nod_108              JUNCTION     0.96     2.97    14.17     5  06:29        2.97
  Nod_109              JUNCTION     0.34     2.65    14.17     5  06:31        2.64
  Nod_110              JUNCTION     0.42     1.62    15.16   358  15:01        1.62
  Nod_111              JUNCTION     0.40     1.67    15.14   358  15:02        1.67
  Nod_112              JUNCTION     0.66     2.26    15.10   358  15:02        2.26
  Nod_113              JUNCTION     0.70     2.29    15.09   358  15:01        2.29
  Nod_114              JUNCTION     0.46     2.29    15.06   358  15:00        2.29
  Nod_115              JUNCTION     0.47     2.34    15.04   358  15:00        2.34
  Nod_116              JUNCTION     0.46     2.36    15.03   358  14:59        2.36
  Nod_117              JUNCTION     0.50     2.61    14.88   358  14:59        2.61
  Nod_118              JUNCTION     0.56     2.84    14.75   358  15:00        2.84
  Nod_119              JUNCTION     0.36     2.72    14.16     5  06:29        2.72
  Nod_120              JUNCTION     0.35     2.79    14.16     5  06:30        2.79
  Nod_121              JUNCTION     0.38     2.90    14.16     5  06:30        2.90
  Nod_122              JUNCTION     0.46     3.02    14.16     5  06:30        3.02
  Nod_123              JUNCTION     0.50     3.07    14.16     5  06:29        3.07
  Nod_124              JUNCTION     0.31     3.12    14.13     5  06:31        3.11
  Nod_126              JUNCTION     0.51     1.27    18.44   238  06:03        1.27
  Nod_127              JUNCTION     0.69     1.43    19.44   214  00:01        1.43
  Nod_128              JUNCTION     0.31     0.82    18.54   238  06:05        0.82
  Nod_129              JUNCTION     0.46     0.91    16.55   238  06:36        0.91
  Nod_130              JUNCTION     0.30     0.83    15.89   358  14:58        0.83
  Nod_131              JUNCTION     0.44     1.19    15.73   358  14:58        1.19
  Nod_132              JUNCTION     0.43     1.24    15.57   358  14:58        1.24
  Nod_133              JUNCTION     0.45     1.26    15.54   358  14:58        1.26
  Nod_134              JUNCTION     0.47     1.33    15.43   358  14:59        1.33
  Nod_135              JUNCTION     0.49     1.35    15.40   358  14:59        1.35
  Nod_136              JUNCTION     0.54     1.41    15.34   358  15:00        1.41
  Nod_222              JUNCTION     1.28     3.53    14.73   358  15:00        3.52
  Nod_233              JUNCTION     0.60     2.91    14.43     5  06:31        2.91
  Nod_244              JUNCTION     0.60     2.93    14.37     5  06:30        2.93
  Nod_266              JUNCTION     0.57     2.93    14.30     5  06:31        2.93
  Nod_277              JUNCTION     0.56     2.98    14.24     5  06:29        2.98
  J1                   JUNCTION     0.29     0.90    15.96   358  14:58        0.90
  J119                 JUNCTION   534.95  34579.16  34579.16   209  01:20    34579.16
  cso_Geldrop          OUTFALL      0.00     0.00     4.62     0  00:00        0.00
  cso_gb_136           OUTFALL      0.00     0.00     1.00     0  00:00        0.00
  cso_RZ               OUTFALL      0.00     0.00    16.07     0  00:00        0.00
  cso_ES_1             OUTFALL      0.00     0.00     0.00     0  00:00        0.00
  cso_AALST            OUTFALL      0.00     0.00     0.00     0  00:00        0.00
  out_ES               OUTFALL      0.00     0.00     0.00     0  00:00        0.00
  out_RZ               OUTFALL      0.00     0.00     0.00     0  00:00        0.00
  cso_gb127            OUTFALL      0.00     0.00     0.00     0  00:00        0.00
  cso_c_122            OUTFALL      0.00     0.00     0.00     0  00:00        0.00
  cso_c_119_1          OUTFALL      0.00     0.00     0.00     0  00:00        0.00
  cso_c_112            OUTFALL      0.00     0.00     0.00     0  00:00        0.00
  cso_c_99             OUTFALL      0.00     0.00     0.00     0  00:00        0.00
  cso_c_123            OUTFALL      0.00     0.00     0.00     0  00:00        0.00
  cso_c_119_2          OUTFALL      0.00     0.00     0.00     0  00:00        0.00
  cso_c_119_3          OUTFALL      0.00     0.00     0.00     0  00:00        0.00
  c_24_vr_storage_5    STORAGE      0.00     0.01     0.01   140  18:00        0.01
  c_23_vr_storage_7    STORAGE      0.00     0.00     0.00   140  18:01        0.00
  c_22_vr_storage_5    STORAGE      0.00     0.00     0.00   140  18:00        0.00
  c_21_vr_storage_7    STORAGE      0.00     0.00     0.00   140  18:01        0.00
  c_12_vr_storage_8    STORAGE      0.00     0.00     0.00   140  18:04        0.00
  c_20_vr_storage_13   STORAGE      0.00     0.00     0.00   140  18:05        0.00
  c_19_vr_storage_7    STORAGE      0.00     0.00     0.00   140  18:00        0.00
  c_10_vr_storage_10   STORAGE      0.00     0.00     0.00   192  19:05        0.00
  c_16_vr_storage_20   STORAGE      0.00     0.00     0.00   140  18:06        0.00
  c_15_vr_storage_24   STORAGE      0.00     0.00     0.00   140  18:10        0.00
  c_14_vr_storage_24   STORAGE      0.00     0.00     0.00   140  18:10        0.00
  pipe_ES              STORAGE      0.32     2.86     2.86   192  19:15        2.86
  pipe_Geldrop         STORAGE      0.08     2.92    17.98   209  00:20        2.92
  gb_136               STORAGE      0.02     0.94    17.39   209  00:20        0.94
  c_129_vr_storage_5   STORAGE      0.00     0.00     0.00   209  00:00        0.00
  c_128_vr_storage_5   STORAGE      0.00     0.00     0.00   209  00:00        0.00
  c_1285_vr_storage_5  STORAGE      0.00     0.00     0.00   209  00:00        0.00
  c_127_vr_storage_5   STORAGE      0.00     0.00     0.00   227  20:00        0.00
  c_126_vr_storage_5   STORAGE      0.00     0.00     0.00   227  20:00        0.00
  c_125_vr_storage_5   STORAGE      0.00     0.00     0.00   227  20:00        0.00
  c_124_storage        STORAGE      0.05     0.09    14.31   362  20:31        0.09
  c_136_vr_storage_5   STORAGE      0.00     0.00     0.00   209  00:05        0.00
  c_135_vr_storage_5   STORAGE      0.00     0.00     0.00   209  00:00        0.00
  c_131_vr_storage_5   STORAGE      0.00     0.00     0.00   209  00:02        0.00
  c_130_vr_storage_5   STORAGE      0.00     0.00     0.00   209  00:00        0.00
  c_134_vr_storage_5   STORAGE      0.00     0.00     0.00   209  00:00        0.00
  c_132_vr_storage_5   STORAGE      0.00     0.00     0.00   209  00:00        0.00
  Aalst_gemaal         STORAGE      0.27     2.50     2.50   140  21:36        2.50
  pre_ontvangstkelder  STORAGE      4.96    24.60    14.10     5  06:31       24.60
  c_150_vr_storage_57  STORAGE      0.00     0.01     0.01   140  18:20        0.01
  c_123_vr_storage_40  STORAGE      0.00     0.01     0.01   209  00:18        0.01
  c_143_vr_storage_70  STORAGE      0.00     0.03     0.03   192  19:40        0.03
  c_147_vr_storage_4   STORAGE      0.00     0.00     0.00   192  19:00        0.00
  c_160_vr_storage_8   STORAGE      0.00     0.00     0.00   140  17:01        0.00
  c_145_vr_storage_4   STORAGE      0.00     0.00     0.00   192  19:00        0.00
  c_144_vr_storage_19  STORAGE      0.00     0.00     0.00   192  19:05        0.00
  c_142_vr_storage_35  STORAGE      0.00     0.00     0.00   192  19:10        0.00
  c_148_vr_storage_12  STORAGE      0.00     0.00     0.00   192  19:01        0.00
  c_149_vr_storage_17  STORAGE      0.00     0.00     0.00   192  19:03        0.00
  c_151_vr_storage_22  STORAGE      0.00     0.00     0.00   192  19:04        0.00
  c_161_vr_storage_32  STORAGE      0.00     0.00     0.00   140  17:10        0.00
  c_138_vr_storage_22  STORAGE      0.00     0.00     0.00   192  19:05        0.00
  c_139_vr_storage_8   STORAGE      0.00     0.00     0.00   192  19:01        0.00
  c_137_vr_storage_4   STORAGE      0.00     0.00     0.00   140  17:00        0.00
  c_122_vr_storage_29  STORAGE      0.00     0.00     0.00   209  00:04        0.00
  c_121_vr_storage_12  STORAGE      0.00     0.00     0.00   140  17:05        0.00
  c_120_vr_storage_8   STORAGE      0.00     0.00     0.00   192  19:01        0.00
  c_119_vr_storage_80  STORAGE      0.00     0.04     0.04   209  00:40        0.04
  c_100_vr_storage_10  STORAGE      0.00     0.00     0.00     4  08:01        0.00
  c_118_vr_storage_13  STORAGE      0.00     0.00     0.00   209  00:01        0.00
  c_116_vr_storage_15  STORAGE      0.00     0.00     0.00   209  00:03        0.00
  c_114_vr_storage_10  STORAGE      0.00     0.00     0.00   209  00:00        0.00
  c_112_vr_storage_21  STORAGE      0.00     0.00     0.00   209  00:00        0.00
  c_107_vr_storage_36  STORAGE      0.00     0.00     0.00   140  17:20        0.00
  c_107_2_vr_storage_12 STORAGE      0.00     0.00     0.00   140  17:02        0.00
  c_106_vr_storage_13  STORAGE      0.00     0.00     0.00   140  17:04        0.00
  c_99_vr_storage_41   STORAGE      0.00     0.00     0.00   209  00:09        0.00
  c_103_vr_storage_8   STORAGE      0.00     0.00     0.00   140  17:00        0.00
  c_98_vr_storage_20   STORAGE      0.00     0.00     0.00   140  17:06        0.00
  gb127                STORAGE      0.03     0.98     0.98   227  20:05        0.98
  c_123                STORAGE      0.11    17.15    17.15   209  04:40       17.15
  c_122                STORAGE      1.09     8.00     8.00   360  21:30        8.00
  c_112                STORAGE      0.04     1.74     1.74   209  00:20        1.74
  c_99                 STORAGE      0.02     9.75     9.75   209  03:05        9.75
  c_119_1              STORAGE      0.20     5.11     5.11   209  01:25        5.11
  c_119_2              STORAGE      0.08     7.08     7.08   209  01:25        7.08
  c_119_3              STORAGE      0.13    20.00    20.00   209  03:51       20.00
  
  
  *******************
  Node Inflow Summary
  *******************
  
  -------------------------------------------------------------------------------------------------
                                  Maximum  Maximum                  Lateral       Total        Flow
                                  Lateral    Total  Time of Max      Inflow      Inflow     Balance
                                   Inflow   Inflow   Occurrence      Volume      Volume       Error
  Node                 Type           CMS      CMS  days hr:min    10^6 ltr    10^6 ltr     Percent
  -------------------------------------------------------------------------------------------------
  Nod_100              JUNCTION     0.000    0.789   155  06:52           0    5.93e+03       0.000
  Nod_890              JUNCTION     0.000    0.371     0  00:16           0         260       0.098
  Nod_891              JUNCTION     0.000    0.258     0  00:19           0         136       0.097
  Nod_892              JUNCTION     0.000    0.148     0  00:02           0        50.6       0.116
  Nod_A*HLCMRZ1135     JUNCTION     0.000    0.315     0  00:00           0        9.26       0.447
  Nod_103              JUNCTION     0.000    0.568   358  14:58           0    5.93e+03       0.050
  Nod_104              JUNCTION     0.000    0.568   358  14:58           0    6.17e+03       0.001
  Nod_105              JUNCTION     0.000    0.522     1  12:18           0    5.98e+03      -0.000
  Nod_106              JUNCTION     0.000    0.524     1  00:26           0    5.98e+03       0.000
  Nod_107              JUNCTION     0.000    0.528     1  00:18           0    5.98e+03       0.171
  Nod_108              JUNCTION     0.000    0.547     1  00:16           0    5.97e+03      -0.077
  Nod_109              JUNCTION     0.000    0.626   243  19:49           0    5.98e+03      -0.007
  Nod_110              JUNCTION     0.000    2.533     2  21:51           0    2.31e+04       0.006
  Nod_111              JUNCTION     0.000    2.533     2  20:30           0    2.31e+04       0.001
  Nod_112              JUNCTION     0.000    2.532     2  20:25           0    2.32e+04      -0.006
  Nod_113              JUNCTION     0.000    2.531   238  08:10           0    2.31e+04       0.001
  Nod_114              JUNCTION     0.000    2.531   238  08:09           0    2.31e+04       0.000
  Nod_115              JUNCTION     0.000    2.530   238  08:03           0    2.31e+04       0.000
  Nod_116              JUNCTION     0.000    2.530   238  08:06           0    2.31e+04       0.001
  Nod_117              JUNCTION     0.000    2.550   193  21:36           0    2.31e+04       0.022
  Nod_118              JUNCTION     0.000    4.416   238  05:44           0    2.55e+04       0.028
  Nod_119              JUNCTION     0.000    0.981     0  00:01           0    5.98e+03      -0.001
  Nod_120              JUNCTION     0.000    0.696     0  00:02           0    5.98e+03      -0.001
  Nod_121              JUNCTION     0.000    0.721   144  04:35           0    5.98e+03      -0.003
  Nod_122              JUNCTION     0.000    0.815   243  22:13           0    5.98e+03      -0.002
  Nod_123              JUNCTION     0.000    3.090   266  21:39           0    2.91e+04      -0.000
  Nod_124              JUNCTION     0.000    3.258   266  21:36           0    2.91e+04      -0.000
  Nod_126              JUNCTION     0.000    2.100   238  06:19           0    2.15e+04      -0.002
  Nod_127              JUNCTION     0.000    2.100     0  00:05           0    2.15e+04       0.001
  Nod_128              JUNCTION     0.000    2.116   238  04:27           0    2.15e+04      -0.002
  Nod_129              JUNCTION     0.000    2.100   238  06:18           0    2.15e+04      -0.001
  Nod_130              JUNCTION     0.000    2.588   155  06:58           0    2.31e+04       0.001
  Nod_131              JUNCTION     0.000    2.564   155  06:59           0    2.31e+04       0.000
  Nod_132              JUNCTION     0.000    2.533     2  21:39           0    2.31e+04       0.000
  Nod_133              JUNCTION     0.000    2.533     2  21:55           0    2.31e+04       0.000
  Nod_134              JUNCTION     0.000    2.533     2  21:27           0    2.31e+04       0.000
  Nod_135              JUNCTION     0.000    2.533     2  21:53           0    2.31e+04       0.000
  Nod_136              JUNCTION     0.000    2.533     2  21:52           0    2.31e+04       0.009
  Nod_222              JUNCTION     0.000    5.823   256  02:17           0    2.55e+04      -0.035
  Nod_233              JUNCTION     0.000    2.727   238  06:23           0    2.31e+04      -0.013
  Nod_244              JUNCTION     0.000    2.558   193  21:42           0    2.31e+04      -0.002
  Nod_266              JUNCTION     0.000    2.559   193  21:42           0    2.31e+04      -0.000
  Nod_277              JUNCTION     0.000    2.559   193  21:41           0    2.31e+04      -0.000
  J1                   JUNCTION     0.000    0.800     0  08:15           0    5.98e+03      -0.001
  J119                 JUNCTION     0.000   11.458   209  01:15           0    3.46e+03      -0.260
  cso_Geldrop          OUTFALL      0.000    6.173   209  00:20           0        67.3       0.000
  cso_gb_136           OUTFALL      0.000    2.431   209  00:20           0        30.2       0.000
  cso_RZ               OUTFALL      0.000    0.000     0  00:00           0           0       0.000 ltr
  cso_ES_1             OUTFALL      0.000   25.779   192  19:15           0         928       0.000
  cso_AALST            OUTFALL      0.000    2.035   140  21:37           0         245       0.000
  out_ES               OUTFALL      0.000    3.888     1  00:19           0    3.35e+04       0.000
  out_RZ               OUTFALL      0.000    3.034     5  06:31           0     2.9e+04       0.000
  cso_gb127            OUTFALL      0.000    5.127   227  20:05           0         132       0.000
  cso_c_122            OUTFALL      0.000    0.888   360  21:30           0        34.2       0.000
  cso_c_119_1          OUTFALL      0.000    4.340   209  01:25           0         174       0.000
  cso_c_112            OUTFALL      0.000    0.926   209  00:20           0        15.7       0.000
  cso_c_99             OUTFALL      0.000    0.000     0  00:00           0           0       0.000 ltr
  cso_c_123            OUTFALL      0.000    0.000     0  00:00           0           0       0.000 ltr
  cso_c_119_2          OUTFALL      0.000    2.865   209  01:25           0        19.9       0.000
  cso_c_119_3          OUTFALL      0.000    0.000     0  00:00           0           0       0.000 ltr
  c_24_vr_storage_5    STORAGE     34.343   36.178   140  18:00    3.35e+04    3.45e+04      -0.000
  c_23_vr_storage_7    STORAGE      0.050    0.050   140  18:00          52          52      -0.000
  c_22_vr_storage_5    STORAGE      0.026    0.026   140  18:00        10.6        10.6      -0.000
  c_21_vr_storage_7    STORAGE      0.053    0.053   140  18:00        51.4        51.4      -0.000
  c_12_vr_storage_8    STORAGE      0.062    0.062   140  18:00        74.6        74.6      -0.000
  c_20_vr_storage_13   STORAGE      0.161    0.161   140  18:00        65.9        65.9      -0.000
  c_19_vr_storage_7    STORAGE      0.056    0.056   140  18:00        46.6        46.6      -0.000
  c_10_vr_storage_10   STORAGE      0.067    0.067   192  19:00        39.6        39.6      -0.000
  c_16_vr_storage_20   STORAGE      0.425    0.425   140  18:00         174         174      -0.000
  c_15_vr_storage_24   STORAGE      0.548    0.548   140  18:00         259         259      -0.000
  c_14_vr_storage_24   STORAGE      0.573    0.573   140  18:00         235         235      -0.000
  pipe_ES              STORAGE      0.000   36.102   140  18:00           0    3.45e+04       0.000
  pipe_Geldrop         STORAGE      0.000    8.692   209  00:00           0    6.04e+03      -0.001
  gb_136               STORAGE      0.000    2.819   209  00:05           0    1.54e+03      -0.001
  c_129_vr_storage_5   STORAGE      0.175    0.175   209  00:00        31.3        31.3      -0.000
  c_128_vr_storage_5   STORAGE      8.024    8.710   209  00:00    4.08e+03    6.05e+03       0.000
  c_1285_vr_storage_5  STORAGE      0.196    0.196   209  00:00        50.7        50.7      -0.000
  c_127_vr_storage_5   STORAGE      5.551    6.444   227  20:00    1.12e+03    2.02e+03       0.000
  c_126_vr_storage_5   STORAGE      0.640    0.896   227  20:00         855         900      -0.000
  c_125_vr_storage_5   STORAGE      0.256    0.256   227  20:00        44.3        44.3      -0.000
  c_124_storage        STORAGE      0.035    0.088   192  18:00         139         330       0.003
  c_136_vr_storage_5   STORAGE      1.408    2.853   209  00:00         957    1.54e+03       0.000
  c_135_vr_storage_5   STORAGE      0.666    0.666   209  00:00         221         221      -0.000
  c_131_vr_storage_5   STORAGE      0.440    0.546   209  00:00         217         268      -0.000
  c_130_vr_storage_5   STORAGE      0.107    0.107   209  00:00          51          51      -0.000
  c_134_vr_storage_5   STORAGE      0.163    0.163   209  00:00        50.6        50.6      -0.000
  c_132_vr_storage_5   STORAGE      0.076    0.076   209  00:00        43.3        43.3      -0.000
  Aalst_gemaal         STORAGE      0.000   16.534   140  18:50           0    2.16e+04      -0.751
  pre_ontvangstkelder  STORAGE      0.000    5.175   228  02:07           0    2.91e+04       0.019
  c_150_vr_storage_57  STORAGE      5.807    5.807   140  18:00    1.85e+03    1.85e+03      -0.000
  c_123_vr_storage_40  STORAGE      3.049    3.049   209  00:00         898         898      -0.000
  c_143_vr_storage_70  STORAGE      4.288    8.616   192  19:00    4.51e+03    8.39e+03       0.000
  c_147_vr_storage_4   STORAGE      0.092    0.092   192  19:00        27.3        27.3      -0.000
  c_160_vr_storage_8   STORAGE      0.290    0.290   140  17:00    1.64e+03    1.64e+03      -0.000
  c_145_vr_storage_4   STORAGE      0.024    0.024   192  19:00        27.6        27.6      -0.000
  c_144_vr_storage_19  STORAGE      0.435    0.435   192  19:00         196         196      -0.000
  c_142_vr_storage_35  STORAGE      1.445    1.445   192  19:00         737         737      -0.000
  c_148_vr_storage_12  STORAGE      0.235    0.235   192  19:00        99.4        99.4      -0.000
  c_149_vr_storage_17  STORAGE      0.341    0.341   192  19:00         115         115      -0.000
  c_151_vr_storage_22  STORAGE      0.581    0.581   192  19:00         207         207      -0.000
  c_161_vr_storage_32  STORAGE      2.692    2.692   140  17:00         440         440      -0.000
  c_138_vr_storage_22  STORAGE      0.561    0.665   192  19:00         301         391      -0.000
  c_139_vr_storage_8   STORAGE      0.097    0.097   192  19:00        29.2        29.2      -0.000
  c_137_vr_storage_4   STORAGE      0.064    0.064   140  17:00        60.9        60.9      -0.000
  c_122_vr_storage_29  STORAGE      1.954    1.954   209  00:00         462         462      -0.000
  c_121_vr_storage_12  STORAGE      0.239    0.312   140  17:00         311         379       0.000
  c_120_vr_storage_8   STORAGE      0.119    0.119   192  19:00        67.4        67.4      -0.000
  c_119_vr_storage_80  STORAGE     10.987   11.482   209  00:00    3.33e+03    3.46e+03      -0.000
  c_100_vr_storage_10  STORAGE      0.143    0.143     4  08:00        57.8        57.8      -0.000
  c_118_vr_storage_13  STORAGE      0.390    0.390   209  00:00          69          69      -0.000
  c_116_vr_storage_15  STORAGE      0.405    0.576   209  00:00         117         175      -0.000
  c_114_vr_storage_10  STORAGE      0.175    0.175   209  00:00        57.9        57.9      -0.000
  c_112_vr_storage_21  STORAGE      0.987    0.987   209  00:00         223         223      -0.000
  c_107_vr_storage_36  STORAGE      2.109    2.682   140  17:00    4.41e+03    4.92e+03       0.000
  c_107_2_vr_storage_12 STORAGE      0.262    0.262   140  17:00        65.6        65.6      -0.000
  c_106_vr_storage_13  STORAGE      0.364    0.364   140  17:00         446         446      -0.000
  c_99_vr_storage_41   STORAGE      2.298    2.409     4  08:00         837         880      -0.000
  c_103_vr_storage_8   STORAGE      0.143    0.143   140  17:00          43          43      -0.000
  c_98_vr_storage_20   STORAGE      0.632    0.632   140  17:00         242         242      -0.000
  gb127                STORAGE      0.000    6.399   227  20:00           0    2.02e+03      -0.002
  c_123                STORAGE      0.000    3.047   209  00:35           0         898      -0.002
  c_122                STORAGE      0.000    1.953   209  00:25           0         462      -0.001
  c_112                STORAGE      0.000    0.987   209  00:15           0         223      -0.004
  c_99                 STORAGE      0.000    2.402     4  08:35           0         880      -0.002
  c_119_1              STORAGE      0.000   10.000     0  00:00           0    1.39e+03      -0.001
  c_119_2              STORAGE      0.000   10.000     0  00:00           0         972      -0.001
  c_119_3              STORAGE      0.000   10.000     0  00:00           0    1.11e+03      -0.001
  
  
  **********************
  Node Surcharge Summary
  **********************
  
  Surcharging occurs when water rises above the top of the highest conduit.
  ---------------------------------------------------------------------
                                               Max. Height   Min. Depth
                                   Hours       Above Crown    Below Rim
  Node                 Type      Surcharged         Meters       Meters
  ---------------------------------------------------------------------
  Nod_100              JUNCTION      747.65          0.403        1.317
  Nod_890              JUNCTION       70.22          0.068        0.832
  Nod_108              JUNCTION      111.76          0.100        6.830
  Nod_109              JUNCTION      476.31          0.846       25.834
  Nod_114              JUNCTION      156.75          0.193        5.937
  Nod_115              JUNCTION      290.36          0.542        5.958
  Nod_116              JUNCTION      297.16          0.559        5.971
  Nod_117              JUNCTION      417.85          0.812        6.118
  Nod_118              JUNCTION      485.12          0.949        6.251
  Nod_119              JUNCTION      517.42          0.925       25.835
  Nod_120              JUNCTION      559.80          0.993       25.837
  Nod_121              JUNCTION      623.93          1.102       25.838
  Nod_122              JUNCTION      690.58          1.222       25.838
  Nod_123              JUNCTION      716.69          1.270       25.840
  Nod_124              JUNCTION      748.02          1.316       25.874
  Nod_222              JUNCTION      546.24          1.078        6.272
  Nod_233              JUNCTION      607.33          1.115       25.565
  Nod_244              JUNCTION      621.19          1.133       25.627
  Nod_266              JUNCTION      628.77          1.135       25.695
  Nod_277              JUNCTION      659.17          1.179       25.761
  J119                 JUNCTION     8760.00      34579.164    99965419.836
  
  
  *********************
  Node Flooding Summary
  *********************
  
  Flooding refers to all water that overflows a node, whether it ponds or not.
  --------------------------------------------------------------------------
                                                             Total   Maximum
                                 Maximum   Time of Max       Flood    Ponded
                        Hours       Rate    Occurrence      Volume     Depth
  Node                 Flooded       CMS   days hr:min    10^6 ltr    Meters
  --------------------------------------------------------------------------
  Aalst_gemaal            8.51     2.411    357  04:50      35.456     0.000
  c_119_3                 1.57     0.550    209  03:51       1.455     0.000
  
  
  **********************
  Storage Volume Summary
  **********************
  
  ------------------------------------------------------------------------------------------------
                         Average    Avg   Evap  Exfil     Maximum    Max    Time of Max    Maximum
                          Volume   Pcnt   Pcnt   Pcnt      Volume   Pcnt     Occurrence    Outflow
  Storage Unit           1000 m³   Full   Loss   Loss     1000 m³   Full    days hr:min        CMS
  ------------------------------------------------------------------------------------------------
  c_24_vr_storage_5        0.196    0.0    0.0    0.0       5.770    0.1     140  18:00     36.102
  c_23_vr_storage_7        0.000    0.0    0.0    0.0       0.008    0.0     140  18:01      0.050
  c_22_vr_storage_5        0.000    0.0    0.0    0.0       0.004    0.0     140  18:00      0.026
  c_21_vr_storage_7        0.000    0.0    0.0    0.0       0.008    0.0     140  18:01      0.053
  c_12_vr_storage_8        0.001    0.0    0.0    0.0       0.028    0.0     140  18:04      0.062
  c_20_vr_storage_13       0.002    0.0    0.0    0.0       0.119    0.0     140  18:05      0.161
  c_19_vr_storage_7        0.000    0.0    0.0    0.0       0.009    0.0     140  18:00      0.056
  c_10_vr_storage_10       0.001    0.0    0.0    0.0       0.030    0.0     192  19:05      0.067
  c_16_vr_storage_20       0.006    0.0    0.0    0.0       0.434    0.0     140  18:06      0.425
  c_15_vr_storage_24       0.011    0.0    0.0    0.0       0.712    0.0     140  18:10      0.547
  c_14_vr_storage_24       0.010    0.0    0.0    0.0       0.745    0.0     140  18:10      0.573
  pipe_ES                 20.919   10.6    0.0    0.0     188.672   95.3     192  19:15     29.667
  pipe_Geldrop             0.843    1.7    0.0    0.0      29.183   58.4     209  00:20      6.973
  gb_136                   0.235    1.6    0.0    0.0       9.375   62.5     209  00:20      2.622
  c_129_vr_storage_5       0.000    0.0    0.0    0.0       0.027    0.0     209  00:00      0.175
  c_128_vr_storage_5       1.059    0.0    0.0    0.0       2.704    0.0     209  00:00      8.692
  c_1285_vr_storage_5      0.000    0.0    0.0    0.0       0.030    0.0     209  00:00      0.196
  c_127_vr_storage_5       0.007    0.0    0.0    0.0       1.089    0.0     227  20:00      6.399
  c_126_vr_storage_5       0.001    0.0    0.0    0.0       0.169    0.0     227  20:00      0.893
  c_125_vr_storage_5       0.000    0.0    0.0    0.0       0.039    0.0     227  20:00      0.256
  c_124_storage           52.492    0.5    0.0    0.0      86.335    0.9     362  20:31      0.024
  c_136_vr_storage_5       0.009    0.0    0.0    0.0       0.641    0.0     209  00:05      2.819
  c_135_vr_storage_5       0.001    0.0    0.0    0.0       0.101    0.0     209  00:00      0.666
  c_131_vr_storage_5       0.002    0.0    0.0    0.0       0.097    0.0     209  00:02      0.540
  c_130_vr_storage_5       0.000    0.0    0.0    0.0       0.016    0.0     209  00:00      0.106
  c_134_vr_storage_5       0.000    0.0    0.0    0.0       0.025    0.0     209  00:00      0.163
  c_132_vr_storage_5       0.000    0.0    0.0    0.0       0.012    0.0     209  00:00      0.076
  Aalst_gemaal             7.307    5.0    0.0    0.0     144.880  100.0     140  21:36      4.135
  pre_ontvangstkelder      0.050   17.1    0.0    0.0       0.246   84.8       5  06:31      3.034
  c_150_vr_storage_57      0.149    0.0    0.0    0.0      14.845    0.1     140  18:20      5.803
  c_123_vr_storage_40      0.061    0.0    0.0    0.0       6.043    0.1     209  00:18      3.047
  c_143_vr_storage_70      0.989    0.0    0.0    0.0      32.248    0.3     192  19:40      8.483
  c_147_vr_storage_4       0.000    0.0    0.0    0.0       0.014    0.0     192  19:00      0.092
  c_160_vr_storage_8       0.025    0.0    0.0    0.0       0.132    0.0     140  17:01      0.290
  c_145_vr_storage_4       0.000    0.0    0.0    0.0       0.004    0.0     192  19:00      0.024
  c_144_vr_storage_19      0.006    0.0    0.0    0.0       0.441    0.0     192  19:05      0.435
  c_142_vr_storage_35      0.043    0.0    0.0    0.0       2.618    0.0     192  19:10      1.444
  c_148_vr_storage_12      0.001    0.0    0.0    0.0       0.105    0.0     192  19:01      0.235
  c_149_vr_storage_17      0.003    0.0    0.0    0.0       0.250    0.0     192  19:03      0.341
  c_151_vr_storage_22      0.007    0.0    0.0    0.0       0.589    0.0     192  19:04      0.580
  c_161_vr_storage_32      0.023    0.0    0.0    0.0       4.060    0.0     140  17:10      2.690
  c_138_vr_storage_22      0.013    0.0    0.0    0.0       0.689    0.0     192  19:05      0.662
  c_139_vr_storage_8       0.000    0.0    0.0    0.0       0.044    0.0     192  19:01      0.097
  c_137_vr_storage_4       0.000    0.0    0.0    0.0       0.010    0.0     140  17:00      0.064
  c_122_vr_storage_29      0.023    0.0    0.0    0.0       3.024    0.0     209  00:04      1.953
  c_121_vr_storage_12      0.003    0.0    0.0    0.0       0.145    0.0     140  17:05      0.306
  c_120_vr_storage_8       0.001    0.0    0.0    0.0       0.053    0.0     192  19:01      0.119
  c_119_vr_storage_80      0.484    0.0    0.0    0.0      41.213    0.4     209  00:40     11.458
  c_100_vr_storage_10      0.001    0.0    0.0    0.0       0.063    0.0       4  08:01      0.143
  c_118_vr_storage_13      0.002    0.0    0.0    0.0       0.286    0.0     209  00:01      0.390
  c_116_vr_storage_15      0.004    0.0    0.0    0.0       0.444    0.0     209  00:03      0.572
  c_114_vr_storage_10      0.001    0.0    0.0    0.0       0.078    0.0     209  00:00      0.175
  c_112_vr_storage_21      0.007    0.0    0.0    0.0       1.032    0.0     209  00:00      0.987
  c_107_vr_storage_36      0.051    0.0    0.0    0.0       4.525    0.0     140  17:20      2.641
  c_107_2_vr_storage_12     0.001    0.0    0.0    0.0       0.115    0.0     140  17:02      0.262
  c_106_vr_storage_13      0.003    0.0    0.0    0.0       0.255    0.0     140  17:04      0.364
  c_99_vr_storage_41       0.060    0.0    0.0    0.0       4.748    0.0     209  00:09      2.402
  c_103_vr_storage_8       0.001    0.0    0.0    0.0       0.064    0.0     140  17:00      0.143
  c_98_vr_storage_20       0.008    0.0    0.0    0.0       0.622    0.0     140  17:06      0.631
  gb127                    0.274    1.5    0.0    0.0       9.822   52.8     227  20:05      5.443
  c_123                    0.113    0.4    0.0    0.0      17.155   57.2     209  04:40      0.284
  c_122                    1.086   10.9    0.0    0.0       7.998   80.0     360  21:30      0.919
  c_112                    0.039    1.9    0.0    0.0       1.739   87.0     209  00:20      0.987
  c_99                     0.024    0.1    0.0    0.0       9.753   48.8     209  03:05      0.556
  c_119_1                  0.199    2.0    0.0    0.0       5.109   51.1     209  01:25      4.583
  c_119_2                  0.082    0.8    0.0    0.0       7.083   70.8     209  01:25      3.205
  c_119_3                  0.130    0.7    0.0    0.0      20.000  100.0     209  03:51      0.389
  
  
  ***********************
  Outfall Loading Summary
  ***********************
  
  -----------------------------------------------------------
                         Flow       Avg       Max       Total
                         Freq      Flow      Flow      Volume
  Outfall Node           Pcnt       CMS       CMS    10^6 ltr
  -----------------------------------------------------------
  cso_Geldrop            0.24     0.881     6.173      67.296
  cso_gb_136             0.27     0.348     2.431      30.153
  cso_RZ                 0.00     0.000     0.000       0.000
  cso_ES_1               0.92     3.204    25.779     928.294
  cso_AALST              0.81     0.954     2.035     244.631
  out_ES                99.91     1.065     3.888   33543.655
  out_RZ               100.00     0.921     3.034   29049.150
  cso_gb127              0.66     0.638     5.127     132.480
  cso_c_122              1.02     0.106     0.888      34.162
  cso_c_119_1            1.17     0.469     4.340     173.563
  cso_c_112              0.37     0.135     0.926      15.686
  cso_c_99               0.00     0.000     0.000       0.000
  cso_c_123              0.00     0.000     0.000       0.000
  cso_c_119_2            0.13     0.493     2.865      19.858
  cso_c_119_3            0.00     0.000     0.000       0.000
  -----------------------------------------------------------
  System                13.70     9.215    34.416   64238.930
  
  
  ********************
  Link Flow Summary
  ********************
  
  -----------------------------------------------------------------------------
                                 Maximum  Time of Max   Maximum    Max/    Max/
                                  |Flow|   Occurrence   |Veloc|    Full    Full
  Link                 Type          CMS  days hr:min     m/sec    Flow   Depth
  -----------------------------------------------------------------------------
  Con_158              CONDUIT     0.258     0  00:19      0.90    0.01    1.00
  Con_159              CONDUIT     0.114     0  00:22      0.32    0.02    0.98
  Con_160              CONDUIT     0.315     0  00:00      1.02    0.02    0.99
  Con_101              CONDUIT     0.568   358  14:58      0.61    1.76    0.83
  Con_102              CONDUIT     0.568   358  14:58      0.65    1.24    0.75
  Con_103              CONDUIT     0.524     1  00:26      0.71    0.69    0.72
  Con_104              CONDUIT     0.522     1  12:18      1.48    0.52    0.68
  Con_105              CONDUIT     0.528     1  00:18      0.74    1.13    0.75
  Con_106              CONDUIT     0.547     1  00:16      0.85    0.71    0.87
  Con_107              CONDUIT     0.626   243  19:49      0.75    0.15    1.00
  Con_108              CONDUIT     0.981     0  00:01      1.30    0.22    1.00
  Con_109              CONDUIT     2.533     2  20:30      1.07    0.43    0.78
  Con_110              CONDUIT     2.532     2  20:25      1.21    0.39    0.86
  Con_157              CONDUIT     0.371     0  00:16      0.91    0.01    1.00
  Con_111              CONDUIT     2.531   238  08:10      0.80    0.44    1.00
  Con_112              CONDUIT     2.531   238  08:09      1.01    0.34    0.97
  Con_113              CONDUIT     2.530   238  08:03      1.20    0.58    1.00
  Con_114              CONDUIT     2.530   238  08:06      1.20    0.64    1.00
  Con_115              CONDUIT     2.550   193  21:36      1.17    0.61    1.00
  Con_116              CONDUIT     2.629   256  02:58      1.21    0.63    1.00
  Con_117              CONDUIT     5.823   256  02:17      2.13    0.39    1.00
  Con_118              CONDUIT     0.696     0  00:02      1.08    0.18    1.00
  Con_119              CONDUIT     0.721   144  04:35      0.87    0.14    1.00
  Con_120              CONDUIT     0.815   243  22:13      0.71    0.17    1.00
  Con_121              CONDUIT     0.926   243  22:15      0.77    0.18    1.00
  Con_122              CONDUIT     3.258   266  21:36      3.42    0.70    1.00
  Con_123              CONDUIT     5.175   228  02:07      6.34    0.06    1.00
  Con_125              CONDUIT     2.100   238  06:18      1.01    0.91    0.73
  Con_126              CONDUIT     2.116   238  04:27      1.06    1.45    0.74
  Con_127              CONDUIT     2.100   238  06:19      1.72    0.33    0.70
  Con_128              CONDUIT     2.100   238  06:37      1.56    0.88    0.47
  Con_129              CONDUIT     2.564   155  06:59      1.42    0.33    0.50
  Con_130              CONDUIT     2.533     2  21:39      0.91    0.53    0.58
  Con_140              CONDUIT     2.533     2  21:55      0.89    0.47    0.60
  Con_141              CONDUIT     2.533     2  21:27      0.87    0.53    0.62
  Con_142              CONDUIT     2.533     2  21:53      0.86    0.54    0.64
  Con_143              CONDUIT     2.533     2  21:52      0.84    0.53    0.66
  Con_144              CONDUIT     2.533     2  21:51      1.00    0.68    0.68
  Con_152              CONDUIT     2.727   238  06:23      1.08    1.02    1.00
  Con_153              CONDUIT     2.558   193  21:42      1.08    0.89    1.00
  Con_154              CONDUIT     2.559   193  21:42      1.14    1.00    1.00
  Con_155              CONDUIT     2.559   193  21:41      1.10    0.79    1.00
  Con_156              CONDUIT     2.559   193  21:41      1.38    0.69    1.00
  geldrop_out_east     CONDUIT     0.488   155  06:58      1.17   17.94    0.87
  geldrop_out_north    CONDUIT     0.609   140  17:07      0.92    0.41    0.86
  eeneind_out          CONDUIT     0.058   358  14:58      1.77    0.63    0.67
  P_c_24_d_5           PUMP       36.102   140  18:00              3.61
  P_c_23_d_7           PUMP        0.050   140  18:00              0.00
  P_c_22_d_5           PUMP        0.026   140  18:00              0.00
  P_c_21_d_7           PUMP        0.053   140  18:00              0.01
  P_c_12_d_8           PUMP        0.062   140  18:05              0.01
  P_c_20_d_13          PUMP        0.161   140  18:10              0.02
  P_c_19_d_7           PUMP        0.056   140  18:00              0.01
  P_c_10_d_10          PUMP        0.067   192  19:05              0.01
  P_c_16_d_20          PUMP        0.425   140  18:15              0.04
  P_c_15_d_24          PUMP        0.547   140  18:20              0.05
  P_c_14_d_24          PUMP        0.573   140  18:20              0.06
  P_c_129_d_5          PUMP        0.175   209  00:00              0.02
  P_c_128_d_5          PUMP        8.692   209  00:00              0.87
  P_c_1285_d_5         PUMP        0.196   209  00:00              0.02
  P_c_127_d_5          PUMP        6.399   227  20:00              0.64
  P_c_126_d_5          PUMP        0.893   227  20:00              0.09
  P_c_125_d_5          PUMP        0.256   227  20:00              0.03
  P_c_136_d_5          PUMP        2.819   209  00:05              0.28
  P_c_135_d_5          PUMP        0.666   209  00:00              0.07
  P_c_131_d_5          PUMP        0.540   209  00:00              0.05
  P_c_130_d_5          PUMP        0.106   209  00:00              0.01
  P_c_134_d_5          PUMP        0.163   209  00:00              0.02
  P_c_132_d_5          PUMP        0.076   209  00:00              0.01
  Con_1119.1           PUMP        0.191     0  08:55              1.00
  P_riool_zuid_out     PUMP        3.034     5  06:31              0.64
  P_eindhoven_out      PUMP        3.888     1  00:19              1.00
  P_c_150_d_57         PUMP        5.803   140  18:50              0.58
  P_c_123_d_40         PUMP        3.047   209  00:35              0.30
  P_c_143_d_70         PUMP        8.483   192  20:05              0.85
  P_c_147_d_4          PUMP        0.092   192  19:00              0.01
  P_c_160_d_8          PUMP        0.290   140  17:05              0.03
  P_c_145_d_4          PUMP        0.024   192  19:00              0.00
  P_c_144_d_19         PUMP        0.435   192  19:15              0.04
  P_c_142_d_35         PUMP        1.444   192  19:30              0.14
  P_c_148_d_12         PUMP        0.235   192  19:05              0.02
  P_c_149_d_17         PUMP        0.341   192  19:10              0.03
  P_c_151_d_22         PUMP        0.580   192  19:15              0.06
  P_c_161_d_32         PUMP        2.690   140  17:25              0.27
  P_c_138_d_22         PUMP        0.662   192  19:15              0.07
  P_c_139_d_8          PUMP        0.097   192  19:05              0.01
  P_c_137_d_4          PUMP        0.064   140  17:00              0.01
  P_c_122_d_29         PUMP        1.953   209  00:25              0.20
  P_c_121_d_12         PUMP        0.306   140  17:05              0.03
  P_c_120_d_8          PUMP        0.119   192  19:05              0.01
  P_c_119_d_80         PUMP       11.458   209  01:15              1.15
  P_c_100_d_10         PUMP        0.143     4  08:05              0.01
  P_c_118_d_13         PUMP        0.390   209  00:10              0.04
  P_c_116_d_15         PUMP        0.572   209  00:10              0.06
  P_c_114_d_10         PUMP        0.175   209  00:05              0.02
  P_c_112_d_21         PUMP        0.987   209  00:15              0.10
  P_c_107_d_36         PUMP        2.641   140  17:30              0.26
  P_c_107_2_d_12       PUMP        0.262   140  17:05              0.03
  P_c_106_d_13         PUMP        0.364   140  17:10              0.04
  P_c_99_d_41          PUMP        2.402     4  08:35              0.24
  P_c_103_d_8          PUMP        0.143   140  17:05              0.01
  P_c_98_d_20          PUMP        0.631   140  17:15              0.06
  P_aalst_1            PUMP        0.560     0  00:05              1.00
  P_aalst_2            PUMP        0.560     0  00:05              1.00
  P_aalst_3            PUMP        0.490     0  00:05              1.00
  P_aalst_4            PUMP        0.490     0  00:00              1.00
  P_pipe_Geldrop       PUMP        0.800     0  08:15              1.00
  P_gb127              PUMP        0.316     0  07:45              1.00
  P_c_99               PUMP        0.556     1  00:10              1.00
  P_c_112              PUMP        0.061     0  07:45              1.00
  P_c_119_1            PUMP        0.243     0  00:00              1.00
  P_c_122              PUMP        0.031     0  07:40              1.00
  P_c_123              PUMP        0.284     0  09:35              1.00
  P_c_119_2            PUMP        0.340     0  00:00              1.00
  P_c_119_3            PUMP        0.389     0  00:00              1.00
  P_c_119_fr_040       PUMP       10.000     0  00:00              1.00
  P_c_119_fr_028       PUMP       10.000     0  00:00              1.00
  P_c_119_fr_032       PUMP       10.000     0  00:00              1.00
  weir_gb_136          WEIR        2.431   209  00:20                      0.07
  Con_A*HLCMRZ1135.1   WEIR        0.000     0  00:00                      0.00
  weir_ES              WEIR       25.779   192  19:15                      0.36
  Aalst_weir           WEIR        2.035   140  21:37                      0.07
  weir_gb127           WEIR        5.127   227  20:05                      0.12
  weir_pipe_Geldrop    WEIR        6.173   209  00:20                      0.14
  weir_c_123           WEIR        0.000     0  00:00                      0.00
  weir_c_99            WEIR        0.000     0  00:00                      0.00
  weir_c_112           WEIR        0.926   209  00:20                      0.04
  weir_c_119_1         WEIR        4.340   209  01:25                      0.11
  weir_c_122           WEIR        0.888   360  21:30                      0.04
  weir_c_119_2         WEIR        2.865   209  01:25                      0.08
  weir_c_119_3         WEIR        0.000     0  00:00                      0.00
  
  
  ***************************
  Flow Classification Summary
  ***************************
  
  -------------------------------------------------------------------------------------
                      Adjusted    ---------- Fraction of Time in Flow Class ---------- 
                       /Actual         Up    Down  Sub   Sup   Up    Down  Norm  Inlet 
  Conduit               Length    Dry  Dry   Dry   Crit  Crit  Crit  Crit  Ltd   Ctrl  
  -------------------------------------------------------------------------------------
  Con_158                 1.00   0.00  0.00  0.00  1.00  0.00  0.00  0.00  0.00  0.00
  Con_159                 1.00   0.00  0.00  0.00  1.00  0.00  0.00  0.00  0.00  0.00
  Con_160                 1.00   0.00  0.00  0.00  1.00  0.00  0.00  0.00  0.00  0.00
  Con_101                 1.00   0.00  0.00  0.00  1.00  0.00  0.00  0.00  0.00  0.00
  Con_102                 1.00   0.00  0.00  0.00  1.00  0.00  0.00  0.00  0.00  0.00
  Con_103                 1.00   0.00  0.00  0.00  1.00  0.00  0.00  0.00  0.00  0.00
  Con_104                 1.00   0.00  0.00  0.00  1.00  0.00  0.00  0.00  0.00  0.00
  Con_105                 1.00   0.00  0.00  0.00  1.00  0.00  0.00  0.00  0.00  0.00
  Con_106                 1.00   0.00  0.00  0.00  0.07  0.00  0.00  0.93  0.02  0.00
  Con_107                 1.00   0.00  0.00  0.00  1.00  0.00  0.00  0.00  0.03  0.00
  Con_108                 1.00   0.00  0.00  0.00  1.00  0.00  0.00  0.00  0.34  0.00
  Con_109                 1.00   0.00  0.00  0.00  1.00  0.00  0.00  0.00  0.00  0.00
  Con_110                 1.00   0.00  0.00  0.00  1.00  0.00  0.00  0.00  0.00  0.00
  Con_157                 1.00   0.00  0.00  0.00  1.00  0.00  0.00  0.00  0.00  0.00
  Con_111                 1.00   0.00  0.00  0.00  1.00  0.00  0.00  0.00  0.00  0.00
  Con_112                 1.00   0.00  0.00  0.00  1.00  0.00  0.00  0.00  0.83  0.00
  Con_113                 1.00   0.00  0.00  0.00  1.00  0.00  0.00  0.00  0.00  0.00
  Con_114                 1.00   0.00  0.00  0.00  1.00  0.00  0.00  0.00  0.00  0.00
  Con_115                 1.00   0.00  0.00  0.00  1.00  0.00  0.00  0.00  0.69  0.00
  Con_116                 1.00   0.00  0.00  0.00  1.00  0.00  0.00  0.00  0.35  0.00
  Con_117                 1.00   0.00  0.00  0.00  1.00  0.00  0.00  0.00  0.13  0.00
  Con_118                 1.00   0.00  0.00  0.00  1.00  0.00  0.00  0.00  0.00  0.00
  Con_119                 1.00   0.00  0.00  0.00  1.00  0.00  0.00  0.00  0.77  0.00
  Con_120                 1.00   0.00  0.00  0.00  1.00  0.00  0.00  0.00  0.25  0.00
  Con_121                 1.00   0.00  0.00  0.00  1.00  0.00  0.00  0.00  0.00  0.00
  Con_122                 1.00   0.00  0.00  0.00  0.12  0.88  0.00  0.00  0.00  0.00
  Con_123                 1.00   0.00  0.00  0.00  0.44  0.28  0.00  0.28  0.60  0.00
  Con_125                 1.00   0.00  0.00  0.00  1.00  0.00  0.00  0.00  0.67  0.00
  Con_126                 1.00   0.00  0.00  0.00  1.00  0.00  0.00  0.00  0.00  0.00
  Con_127                 1.00   0.00  0.00  0.00  1.00  0.00  0.00  0.00  0.84  0.00
  Con_128                 1.00   0.00  0.00  0.00  0.00  0.00  0.00  1.00  0.00  0.00
  Con_129                 1.00   0.00  0.00  0.00  1.00  0.00  0.00  0.00  0.86  0.00
  Con_130                 1.00   0.00  0.00  0.00  1.00  0.00  0.00  0.00  0.03  0.00
  Con_140                 1.00   0.00  0.00  0.00  1.00  0.00  0.00  0.00  0.00  0.00
  Con_141                 1.00   0.00  0.00  0.00  1.00  0.00  0.00  0.00  0.22  0.00
  Con_142                 1.00   0.00  0.00  0.00  1.00  0.00  0.00  0.00  0.00  0.00
  Con_143                 1.00   0.00  0.00  0.00  1.00  0.00  0.00  0.00  0.00  0.00
  Con_144                 1.00   0.00  0.00  0.00  0.74  0.00  0.00  0.26  0.00  0.00
  Con_152                 1.00   0.00  0.00  0.00  1.00  0.00  0.00  0.00  0.16  0.00
  Con_153                 1.00   0.00  0.00  0.00  1.00  0.00  0.00  0.00  0.05  0.00
  Con_154                 1.00   0.00  0.00  0.00  1.00  0.00  0.00  0.00  0.00  0.00
  Con_155                 1.00   0.00  0.00  0.00  1.00  0.00  0.00  0.00  0.00  0.00
  Con_156                 1.00   0.00  0.00  0.00  1.00  0.00  0.00  0.00  0.00  0.00
  geldrop_out_east        1.00   0.00  0.00  0.00  1.00  0.00  0.00  0.00  0.00  0.00
  geldrop_out_north       1.00   0.00  0.00  0.00  1.00  0.00  0.00  0.00  0.85  0.00
  eeneind_out             1.00   0.00  0.00  0.00  0.89  0.11  0.00  0.00  0.84  0.00
  
  
  *************************
  Conduit Surcharge Summary
  *************************
  
  ----------------------------------------------------------------------------
                                                           Hours        Hours 
                         --------- Hours Full --------   Above Full   Capacity
  Conduit                Both Ends  Upstream  Dnstream   Normal Flow   Limited
  ----------------------------------------------------------------------------
  Con_158                     0.01      0.01     70.18      0.01         0.01
  Con_160                     0.01      0.01    137.36      0.01         0.01
  Con_101                     0.01    785.07      0.01   1129.06         0.01
  Con_102                     0.01      0.01      0.01    864.80         0.01
  Con_105                     0.01      0.01      0.01    702.85         0.01
  Con_106                     0.01      0.01    111.73      0.01         0.01
  Con_107                   332.20    332.20    476.30      0.01         0.01
  Con_108                   476.30    476.30    517.40      0.01         0.01
  Con_157                    70.18     70.18    137.35      0.01         0.01
  Con_111                   137.35    137.35    155.42      0.01         0.01
  Con_112                     0.01      0.01    156.73      0.01         0.01
  Con_113                   273.56    273.56    290.35      0.01         0.01
  Con_114                   290.35    290.35    297.15      0.01         0.01
  Con_115                   297.15    297.15    417.84      0.01         0.01
  Con_116                   417.84    417.84    525.47      0.01         0.01
  Con_117                   485.12    485.12   1237.46      0.01         0.01
  Con_118                   517.40    517.40    559.78      0.01         0.01
  Con_119                   559.78    559.78    623.91      0.01         0.01
  Con_120                   623.91    623.91    690.57      0.01         0.01
  Con_121                   690.57    690.57    716.68      0.01         0.01
  Con_122                   716.68    716.68    748.00      0.01         0.01
  Con_123                   748.00    748.00   1720.66      0.01         0.01
  Con_126                     0.01      0.01      0.01   1335.36         0.01
  Con_152                   546.22    546.22    607.33      3.81         0.01
  Con_153                   607.33    607.33    621.17      0.01         0.01
  Con_154                   621.17    621.17    628.75      0.01         0.01
  Con_155                   628.75    628.75    659.15      0.01         0.01
  Con_156                   659.15    659.15    716.68      0.01         0.01
  geldrop_out_east            0.01      0.01      0.01   1084.48         0.01
  geldrop_out_north           0.01      0.01    747.60      0.01         0.01
  eeneind_out                 0.01      0.01   8754.43      0.01         0.01
  
  
  ***************
  Pumping Summary
  ***************
  
  ---------------------------------------------------------------------------------------------------------
                                                  Min       Avg       Max     Total     Power    % Time Off
                        Percent   Number of      Flow      Flow      Flow    Volume     Usage    Pump Curve
  Pump                 Utilized   Start-Ups       CMS       CMS       CMS  10^6 ltr     Kw-hr    Low   High
  ---------------------------------------------------------------------------------------------------------
  P_c_24_d_5             100.00           1      0.00      1.09     36.10 34485.912  60800.29    0.0  100.0
  P_c_23_d_7             100.00           1      0.00      0.00      0.05    51.973      0.07    0.0  100.0
  P_c_22_d_5              33.06          68      0.00      0.00      0.03    10.538      0.03    0.0  100.0
  P_c_21_d_7             100.00           1      0.00      0.00      0.05    51.360      0.07    0.0  100.0
  P_c_12_d_8             100.00           1      0.00      0.00      0.06    74.615      0.10    0.0   99.8
  P_c_20_d_13             35.66          69      0.00      0.01      0.16    65.938      0.16    0.0   99.0
  P_c_19_d_7             100.00           1      0.00      0.00      0.06    46.563      0.07    0.0  100.0
  P_c_10_d_10             40.98          58      0.00      0.00      0.07    39.588      0.09    0.0   96.5
  P_c_16_d_20             36.42          70      0.00      0.02      0.42   174.087      0.41    0.0   98.3
  P_c_15_d_24            100.00           1      0.00      0.01      0.55   258.955      0.52    0.0   99.3
  P_c_14_d_24             36.55          71      0.00      0.02      0.57   234.754      0.52    0.0   97.9
  P_c_129_d_5             22.45         118      0.00      0.00      0.17    31.287      0.12    0.0  100.0
  P_c_128_d_5            100.00           1      0.00      0.19      8.69  6043.835 254125.54    0.0  100.0
  P_c_1285_d_5           100.00           1      0.00      0.00      0.20    50.698      0.18    0.0  100.0
  P_c_127_d_5            100.00           1      0.00      0.06      6.40  2020.315   1073.30    0.0    7.6
  P_c_126_d_5            100.00           1      0.00      0.03      0.89   899.538      0.06    0.0   99.0
  P_c_125_d_5            100.00           1      0.00      0.00      0.26    44.333      0.00    0.0   99.7
  P_c_136_d_5            100.00           1      0.00      0.05      2.82  1539.273  69404.95    0.0  100.0
  P_c_135_d_5            100.00           1      0.00      0.01      0.67   220.816      0.03    0.0  100.0
  P_c_131_d_5            100.00           1      0.00      0.01      0.54   267.724      0.03    0.0   99.8
  P_c_130_d_5            100.00           1      0.00      0.00      0.11    51.032      0.00    0.0  100.0
  P_c_134_d_5            100.00           1      0.00      0.00      0.16    50.646      0.01    0.0  100.0
  P_c_132_d_5            100.00           1      0.00      0.00      0.08    43.268      0.01    0.0  100.0
  Con_1119.1             100.00           1      0.00      0.05      0.19  1509.132   4650.25    0.0    7.6
  P_riool_zuid_out       100.00           1      0.00      0.92      3.03 29049.152 753044.54    0.0    0.0
  P_eindhoven_out         99.91           1      0.00      1.06      3.89 33543.657  54115.89    0.0    0.0
  P_c_150_d_57           100.00           1      0.00      0.06      5.80  1854.218   5090.26    0.0   99.0
  P_c_123_d_40           100.00           1      0.00      0.03      3.05   897.576   2764.29    0.0    3.9
  P_c_143_d_70           100.00           1      0.00      0.27      8.48  8387.258  17301.56    0.0   98.9
  P_c_147_d_4             23.90         107      0.00      0.00      0.09    27.328      0.48    0.0  100.0
  P_c_160_d_8            100.00           1      0.00      0.05      0.29  1639.389      5.57    0.0  100.0
  P_c_145_d_4            100.00           1      0.00      0.00      0.02    27.557      0.17    0.0  100.0
  P_c_144_d_19           100.00           1      0.00      0.01      0.43   195.842      2.75    0.0  100.0
  P_c_142_d_35           100.00           1      0.00      0.02      1.44   736.962      9.14    0.0  100.0
  P_c_148_d_12           100.00           1      0.00      0.00      0.23    99.376      1.36    0.0  100.0
  P_c_149_d_17            29.01          82      0.00      0.01      0.34   114.725      2.04    0.0  100.0
  P_c_151_d_22           100.00           1      0.00      0.01      0.58   206.728      3.42    0.0  100.0
  P_c_161_d_32            29.80          86      0.00      0.05      2.69   439.930      7.74    0.0  100.0
  P_c_138_d_22           100.00           1      0.00      0.01      0.66   390.671      4.48    0.0  100.0
  P_c_139_d_8             24.34         105      0.00      0.00      0.10    29.198      0.01    0.0  100.0
  P_c_137_d_4            100.00           1      0.00      0.00      0.06    60.877      0.00    0.0   99.9
  P_c_122_d_29           100.00           1      0.00      0.01      1.95   462.069   3640.57    0.0   32.6
  P_c_121_d_12           100.00           1      0.00      0.01      0.31   378.549    529.46    0.0   99.0
  P_c_120_d_8            100.00           1      0.00      0.00      0.12    67.387      0.00    0.0   99.9
  P_c_119_d_80           100.00           1      0.00      0.11     11.46  3461.737 32323960.65    0.0  100.0
  P_c_100_d_10           100.00           1      0.00      0.00      0.14    57.834      0.62    0.0  100.0
  P_c_118_d_13            21.98         116      0.00      0.01      0.39    69.021      1.22    0.0  100.0
  P_c_116_d_15           100.00           1      0.00      0.01      0.57   174.828    415.45    0.0   99.0
  P_c_114_d_10           100.00           1      0.00      0.00      0.17    57.869      0.01    0.0  100.0
  P_c_112_d_21           100.00           1      0.00      0.01      0.99   223.229    275.11    0.0    6.2
  P_c_107_d_36           100.00           1      0.00      0.16      2.64  4918.627   5311.00    0.0   99.0
  P_c_107_2_d_12         100.00           1      0.00      0.00      0.26    65.612      0.10    0.0  100.0
  P_c_106_d_13           100.00           1      0.00      0.01      0.36   445.887      0.17    0.0  100.0
  P_c_99_d_41            100.00           1      0.00      0.03      2.40   879.634   1142.94    0.0    1.1
  P_c_103_d_8            100.00           1      0.00      0.00      0.14    42.961      0.05    0.0  100.0
  P_c_98_d_20            100.00           1      0.00      0.01      0.63   241.529    571.97    0.0   99.0
  P_aalst_1               20.52        5143      0.00      0.56      0.56  3603.588 177665.51    0.0   95.3
  P_aalst_2               16.57        1980      0.00      0.56      0.56  2922.629 143191.21    0.0   97.4
  P_aalst_3               15.53        1124      0.00      0.49      0.49  2398.985 117208.90    0.0   98.5
  P_aalst_4              100.00           1      0.00      0.40      0.49 12599.364 631986.73    0.0   99.0
  P_pipe_Geldrop         100.00           1      0.00      0.19      0.80  5976.618   6966.11    0.0    8.6
  P_gb127                100.00           1      0.00      0.06      0.32  1887.871    745.04    0.0    7.6
  P_c_99                 100.00           1      0.00      0.03      0.56   879.652   2456.66    0.0    1.1
  P_c_112                100.00           1      0.00      0.01      0.06   207.552    390.33    0.0    6.3
  P_c_119_1              100.00          39      0.00      0.04      0.24  1214.144   3054.94    0.0  100.0
  P_c_122                100.00           1      0.00      0.01      0.03   425.277   2323.33    0.0   32.6
  P_c_123                100.00           1      0.00      0.03      0.28   897.595   2820.39    0.0    3.9
  P_c_119_2              100.00          22      0.00      0.03      0.34   952.444   2638.66    0.0  100.0
  P_c_119_3              100.00          19      0.00      0.04      0.39  1109.317   4350.66    0.0  100.0
  P_c_119_fr_040         100.00           1      0.00      0.04     10.00  1387.674 12923079.30    0.0    0.0
  P_c_119_fr_028         100.00           1      0.00      0.03     10.00   972.271 9047958.95    0.0    0.0
  P_c_119_fr_032         100.00           1      0.00      0.04     10.00  1110.739 10339261.70    0.0    0.0
  

  Analysis begun on:  Thu Apr  3 11:54:49 2025
  Analysis ended on:  Thu Apr  3 12:17:09 2025
  Total elapsed time: 00:22:20