
  EPA STORM WATER MANAGEMENT MODEL - VERSION 5.2 (Build 5.2.4)
  PYSWMM TOOLKIT API - VERSION v1.0 (2023-11-27)
  ------------------------------------------------------------

  WARNING 02: maximum depth increased for Node gb127
  
  ****************
  Analysis Options
  ****************
  Flow Units ............... CMS
  Process Models:
    Rainfall/Runoff ........ YES
    RDII ................... NO
    Snowmelt ............... NO
    Groundwater ............ NO
    Flow Routing ........... YES
    Ponding Allowed ........ NO
    Water Quality .......... NO
  Infiltration Method ...... HORTON
  Flow Routing Method ...... DYNWAVE
  Surcharge Method ......... EXTRAN
  Starting Date ............ 04/15/2024 00:00:00
  Ending Date .............. 10/16/2024 00:00:00
  Antecedent Dry Days ...... 0.0
  Report Time Step ......... 00:05:00
  Wet Time Step ............ 00:01:00
  Dry Time Step ............ 00:10:00
  Routing Time Step ........ 2.00 sec
  Variable Time Step ....... YES
  Maximum Trials ........... 12
  Number of Threads ........ 2
  Head Tolerance ........... 0.000200 m
  
  
  *********************
  Rainfall File Summary
  *********************
  Station    First        Last         Recording   Periods    Periods    Periods
  ID         Date         Date         Frequency  w/Precip    Missing    Malfunc.
  -------------------------------------------------------------------------------
  ES         01/01/2024   12/31/2024       5 min    105217          0          0

  GE         01/01/2024   12/31/2024       5 min    105217          0          0

  RZ1        01/01/2024   12/31/2024       5 min    105217          0          0

  RZ2        01/01/2024   12/31/2024       5 min    105217          0          0

  
  
  **************************        Volume         Depth
  Runoff Quantity Continuity     hectare-m            mm
  **************************     ---------       -------
  Total Precipitation ......      1450.101       343.732
  Evaporation Loss .........       751.383       178.108
  Infiltration Loss ........         0.000         0.000
  Surface Runoff ...........       696.566       165.114
  Final Storage ............         2.169         0.514
  Continuity Error (%) .....        -0.001
  
  
  **************************        Volume        Volume
  Flow Routing Continuity        hectare-m      10^6 ltr
  **************************     ---------     ---------
  Dry Weather Inflow .......      1307.450     13074.633
  Wet Weather Inflow .......       696.566      6965.729
  Groundwater Inflow .......         0.000         0.000
  RDII Inflow ..............         0.000         0.000
  External Inflow ..........       575.286      5752.917
  External Outflow .........      2580.565     25805.922
  Flooding Loss ............         1.556        15.557
  Evaporation Loss .........         0.055         0.551
  Exfiltration Loss ........         0.000         0.000
  Initial Stored Volume ....         0.804         8.043
  Final Stored Volume ......         6.427        64.274
  Continuity Error (%) .....        -0.329
  
  
  ***************************
  Time-Step Critical Elements
  ***************************
  None
  
  
  ********************************
  Highest Flow Instability Indexes
  ********************************
  Link P_riool_zuid_out (7)
  Link Con_117 (2)
  Link Con_152 (1)
  Link P_aalst_4 (1)
  
  
  *********************************
  Most Frequent Nonconverging Nodes
  *********************************
  Node cso_Geldrop (1.04%)
  Node cso_gb_136 (1.04%)
  Node cso_RZ (1.04%)
  Node cso_ES_1 (1.04%)
  Node cso_AALST (1.04%)
  
  
  *************************
  Routing Time Step Summary
  *************************
  Minimum Time Step           :     1.50 sec
  Average Time Step           :     2.00 sec
  Maximum Time Step           :     2.00 sec
  % of Time in Steady State   :     0.00
  Average Iterations per Step :     2.14
  % of Steps Not Converging   :     1.04
  Time Step Frequencies       :
      2.000 -  1.516 sec      :   100.00 %
      1.516 -  1.149 sec      :     0.00 %
      1.149 -  0.871 sec      :     0.00 %
      0.871 -  0.660 sec      :     0.00 %
      0.660 -  0.500 sec      :     0.00 %
  
  
  ***************************
  Subcatchment Runoff Summary
  ***************************
  
  ------------------------------------------------------------------------------------------------------------------------------
                            Total      Total      Total      Total     Imperv       Perv      Total       Total     Peak  Runoff
                           Precip      Runon       Evap      Infil     Runoff     Runoff     Runoff      Runoff   Runoff   Coeff
  Subcatchment                 mm         mm         mm         mm         mm         mm         mm    10^6 ltr      CMS
  ------------------------------------------------------------------------------------------------------------------------------
  c_24_catchment           335.42       0.00     183.28       0.00     151.41       0.00     151.41     2905.29    20.17   0.451
  c_23_catchment           335.42       0.00     185.98       0.00     148.67       0.00     148.67        4.46     0.03   0.443
  c_22_catchment           335.42       0.00     185.98       0.00     148.67       0.00     148.67        2.38     0.02   0.443
  c_21_catchment           335.42       0.00     185.98       0.00     148.67       0.00     148.67        4.76     0.03   0.443
  c_12_catchment           335.42       0.00     185.98       0.00     148.67       0.00     148.67        5.50     0.03   0.443
  c_20_catchment           335.42       0.00     185.98       0.00     148.67       0.00     148.67       14.87     0.09   0.443
  c_19_catchment           335.42       0.00     185.98       0.00     148.67       0.00     148.67        5.05     0.03   0.443
  c_10_catchment           335.42       0.00     198.52       0.00     136.01       0.00     136.01        8.43     0.04   0.406
  c_16_catchment           335.42       0.00     185.98       0.00     148.67       0.00     148.67       39.25     0.25   0.443
  c_15_catchment           335.42       0.00     185.98       0.00     148.67       0.00     148.67       50.40     0.32   0.443
  c_14_catchment           335.42       0.00     185.98       0.00     148.67       0.00     148.67       52.93     0.33   0.443
  c_129_catchment          370.30       0.00     165.48       0.00     204.35       0.00     204.35       10.22     0.16   0.552
  c_128_catchment          370.30       0.00     170.21       0.00     199.46       0.00     199.46      508.83     6.53   0.539
  c_1285_catchment         370.30       0.00     167.04       0.00     202.74       0.00     202.74       11.76     0.17   0.547
  c_127_catchment          370.30       0.00     163.42       0.00     206.49       0.00     206.49      278.56     5.17   0.558
  c_126_catchment          370.30       0.00     164.94       0.00     204.92       0.00     204.92       32.38     0.54   0.553
  c_125_catchment          370.30       0.00     156.55       0.00     213.67       0.00     213.67       11.32     0.42   0.577
  c_124_catchment          370.30       0.00     150.00       0.00     220.42       0.00     220.42        2.20     0.22   0.595
  c_136_catchment          370.30       0.00     183.99       0.00     185.34       0.00     185.34       93.60     0.66   0.501
  c_135_catchment          370.30       0.00     180.75       0.00     188.66       0.00     188.66       41.51     0.34   0.509
  c_131_catchment          370.30       0.00     185.02       0.00     184.27       0.00     184.27       39.62     0.27   0.498
  c_130_catchment          370.30       0.00     175.77       0.00     193.77       0.00     193.77        7.56     0.08   0.523
  c_134_catchment          370.30       0.00     180.19       0.00     189.24       0.00     189.24       10.03     0.08   0.511
  c_132_catchment          370.30       0.00     175.77       0.00     193.77       0.00     193.77        7.56     0.08   0.523
  c_150_catchment          358.29       0.00     170.67       0.00     187.34       0.00     187.34      384.05     5.51   0.523
  c_123_catchment          358.29       0.00     174.18       0.00     183.78       0.00     183.78      186.54     2.30   0.513
  c_143_catchment          358.29       0.00     189.95       0.00     167.87       0.00     167.87      517.05     3.72   0.469
  c_147_catchment          358.29       0.00     168.58       0.00     189.45       0.00     189.45        8.15     0.13   0.529
  c_160_catchment          358.29       0.00     170.36       0.00     187.65       0.00     187.65        9.38     0.14   0.524
  c_145_catchment          358.29       0.00     161.04       0.00     197.15       0.00     197.15        1.97     0.06   0.550
  c_144_catchment          358.29       0.00     175.72       0.00     182.22       0.00     182.22       41.55     0.48   0.509
  c_142_catchment          358.29       0.00     176.53       0.00     181.40       0.00     181.40      139.32     1.54   0.506
  c_148_catchment          358.29       0.00     170.31       0.00     187.70       0.00     187.70       21.02     0.31   0.524
  c_149_catchment          358.29       0.00     176.61       0.00     181.32       0.00     181.32       33.18     0.37   0.506
  c_151_catchment          358.29       0.00     173.72       0.00     184.24       0.00     184.24       54.17     0.68   0.514
  c_161_catchment          358.29       0.00     178.07       0.00     179.84       0.00     179.84      122.29     1.28   0.502
  c_138_catchment          358.29       0.00     175.05       0.00     182.90       0.00     182.90       52.86     0.63   0.510
  c_139_catchment          358.29       0.00     169.37       0.00     188.66       0.00     188.66        8.68     0.13   0.527
  c_137_catchment          358.29       0.00     161.04       0.00     197.15       0.00     197.15        1.97     0.06   0.550
  c_122_catchment          330.56       0.00     157.09       0.00     173.49       0.00     173.49       90.56     1.66   0.525
  c_121_catchment          330.56       0.00     179.53       0.00     151.03       0.00     151.03       15.56     0.11   0.457
  c_120_catchment          330.56       0.00     165.47       0.00     165.09       0.00     165.09        8.09     0.10   0.499
  c_119_catchment          330.56       0.00     169.04       0.00     161.52       0.00     161.52      634.78     6.54   0.489
  c_100_catchment          330.56       0.00     159.25       0.00     171.32       0.00     171.32       11.48     0.18   0.518
  c_118_catchment          330.56       0.00     159.73       0.00     170.84       0.00     170.84       19.30     0.30   0.517
  c_116_catchment          330.56       0.00     163.99       0.00     166.57       0.00     166.57       21.49     0.28   0.504
  c_114_catchment          330.56       0.00     160.46       0.00     170.11       0.00     170.11       10.38     0.16   0.515
  c_112_catchment          330.56       0.00     152.80       0.00     177.79       0.00     177.79       50.67     1.36   0.538
  c_107_catchment          330.56       0.00     171.21       0.00     159.35       0.00     159.35      123.02     1.14   0.482
  c_107_2_catchment        330.56       0.00     166.04       0.00     164.52       0.00     164.52       14.81     0.18   0.498
  c_106_catchment          330.56       0.00     165.76       0.00     164.80       0.00     164.80       18.62     0.22   0.499
  c_99_catchment           330.56       0.00     169.75       0.00     160.82       0.00     160.82      166.77     1.66   0.486
  c_103_catchment          330.56       0.00     158.74       0.00     171.83       0.00     171.83        6.53     0.11   0.520
  c_98_catchment           330.56       0.00     166.39       0.00     164.18       0.00     164.18       43.02     0.50   0.497
  
  
  ******************
  Node Depth Summary
  ******************
  
  ---------------------------------------------------------------------------------
                                 Average  Maximum  Maximum  Time of Max    Reported
                                   Depth    Depth      HGL   Occurrence   Max Depth
  Node                 Type       Meters   Meters   Meters  days hr:min      Meters
  ---------------------------------------------------------------------------------
  Nod_100              JUNCTION     0.60     2.97    17.45     0  00:00        2.97
  Nod_890              JUNCTION     0.52     2.11    15.04   100  08:36        2.11
  Nod_891              JUNCTION     0.45     2.04    15.04   100  08:37        2.04
  Nod_892              JUNCTION     0.39     1.98    15.04   100  08:38        1.98
  Nod_A*HLCMRZ1135     JUNCTION     0.61     2.20    15.04   100  08:38        2.20
  Nod_103              JUNCTION     0.42     1.03    15.00     1  11:03        1.03
  Nod_104              JUNCTION     0.32     0.84    14.62     1  10:55        0.84
  Nod_105              JUNCTION     0.33     0.86    14.62     1  10:56        0.86
  Nod_106              JUNCTION     0.41     0.92    14.49     1  11:08        0.92
  Nod_107              JUNCTION     0.41     0.91    14.46     1  11:12        0.91
  Nod_108              JUNCTION     0.85     2.93    14.13   100  08:35        2.93
  Nod_109              JUNCTION     0.21     2.61    14.13   100  08:36        2.61
  Nod_110              JUNCTION     0.38     1.56    15.10   100  08:34        1.56
  Nod_111              JUNCTION     0.36     1.61    15.08   100  08:34        1.61
  Nod_112              JUNCTION     0.61     2.20    15.04   100  08:36        2.20
  Nod_113              JUNCTION     0.65     2.23    15.03   100  08:37        2.23
  Nod_114              JUNCTION     0.39     2.23    15.00   100  08:37        2.23
  Nod_115              JUNCTION     0.40     2.28    14.98   100  08:37        2.28
  Nod_116              JUNCTION     0.40     2.30    14.97   100  08:37        2.30
  Nod_117              JUNCTION     0.42     2.55    14.82   100  08:37        2.55
  Nod_118              JUNCTION     0.47     2.78    14.69   100  08:37        2.78
  Nod_119              JUNCTION     0.22     2.68    14.12   100  08:36        2.68
  Nod_120              JUNCTION     0.21     2.75    14.12   100  08:36        2.75
  Nod_121              JUNCTION     0.24     2.86    14.12   100  08:36        2.86
  Nod_122              JUNCTION     0.33     2.98    14.12   100  08:36        2.98
  Nod_123              JUNCTION     0.38     3.03    14.12   100  08:36        3.03
  Nod_124              JUNCTION     0.18     3.08    14.09   100  08:36        3.08
  Nod_126              JUNCTION     0.44     1.27    18.44    99  06:41        1.27
  Nod_127              JUNCTION     0.62     1.43    19.44    85  17:50        1.43
  Nod_128              JUNCTION     0.26     0.82    18.54    99  06:43        0.82
  Nod_129              JUNCTION     0.42     0.91    16.55    99  07:15        0.91
  Nod_130              JUNCTION     0.27     1.70    16.76     0  00:05        1.70
  Nod_131              JUNCTION     0.40     1.81    16.35     0  00:05        1.81
  Nod_132              JUNCTION     0.40     1.36    15.69     0  00:06        1.21
  Nod_133              JUNCTION     0.41     1.36    15.64     0  00:06        1.23
  Nod_134              JUNCTION     0.44     1.29    15.39   100  08:31        1.29
  Nod_135              JUNCTION     0.45     1.31    15.36   100  08:31        1.31
  Nod_136              JUNCTION     0.51     1.37    15.30   100  08:32        1.37
  Nod_222              JUNCTION     1.20     3.47    14.67   100  08:37        3.47
  Nod_233              JUNCTION     0.52     2.87    14.39   100  08:36        2.87
  Nod_244              JUNCTION     0.51     2.89    14.33   100  08:36        2.89
  Nod_266              JUNCTION     0.48     2.89    14.26   100  08:36        2.89
  Nod_277              JUNCTION     0.46     2.94    14.20   100  08:36        2.94
  J1                   JUNCTION     1.83     4.00    19.06     0  03:08        4.00
  J119                 JUNCTION   387.06  21203.38  21203.38    99  05:50    21200.20
  cso_Geldrop          OUTFALL      0.00     0.00     4.62     0  00:00        0.00
  cso_gb_136           OUTFALL      0.00     0.00     1.00     0  00:00        0.00
  cso_RZ               OUTFALL      0.00     0.00    16.07     0  00:00        0.00
  cso_ES_1             OUTFALL      0.00     0.00     0.00     0  00:00        0.00
  cso_AALST            OUTFALL      0.00     0.00     0.00     0  00:00        0.00
  out_ES               OUTFALL      0.00     0.00     0.00     0  00:00        0.00
  out_RZ               OUTFALL      0.00     0.00     0.00     0  00:00        0.00
  cso_gb127            OUTFALL      0.00     0.00     0.00     0  00:00        0.00
  cso_c_122            OUTFALL      0.00     0.00     0.00     0  00:00        0.00
  cso_c_119_1          OUTFALL      0.00     0.00     0.00     0  00:00        0.00
  cso_c_112            OUTFALL      0.00     0.00     0.00     0  00:00        0.00
  cso_c_99             OUTFALL      0.00     0.00     0.00     0  00:00        0.00
  cso_c_123            OUTFALL      0.00     0.00     0.00     0  00:00        0.00
  cso_c_119_2          OUTFALL      0.00     0.00     0.00     0  00:00        0.00
  cso_c_119_3          OUTFALL      0.00     0.00     0.00     0  00:00        0.00
  c_24_vr_storage_5    STORAGE      0.00     0.00     0.00   127  19:30        0.00
  c_23_vr_storage_7    STORAGE      0.00     0.00     0.00   127  19:00        0.00
  c_22_vr_storage_5    STORAGE      0.00     0.00     0.00   127  19:00        0.00
  c_21_vr_storage_7    STORAGE      0.00     0.00     0.00   127  19:00        0.00
  c_12_vr_storage_8    STORAGE      0.00     0.00     0.00   127  19:01        0.00
  c_20_vr_storage_13   STORAGE      0.00     0.00     0.00   127  19:05        0.00
  c_19_vr_storage_7    STORAGE      0.00     0.00     0.00   127  19:00        0.00
  c_10_vr_storage_10   STORAGE      0.00     0.00     0.00   127  19:35        0.00
  c_16_vr_storage_20   STORAGE      0.00     0.00     0.00   127  19:10        0.00
  c_15_vr_storage_24   STORAGE      0.00     0.00     0.00   127  19:15        0.00
  c_14_vr_storage_24   STORAGE      0.00     0.00     0.00   127  19:15        0.00
  pipe_ES              STORAGE      0.24     2.61     2.61   127  21:55        2.61
  pipe_Geldrop         STORAGE      0.05     2.86    17.92    85  19:45        2.86
  gb_136               STORAGE      0.02     0.90    17.35    85  20:05        0.90
  c_129_vr_storage_5   STORAGE      0.00     0.00     0.00   127  18:55        0.00
  c_128_vr_storage_5   STORAGE      0.00     0.00     0.00   127  18:56        0.00
  c_1285_vr_storage_5  STORAGE      0.00     0.00     0.00   127  18:55        0.00
  c_127_vr_storage_5   STORAGE      0.00     0.00     0.00   127  18:56        0.00
  c_126_vr_storage_5   STORAGE      0.00     0.00     0.00    85  17:15        0.00
  c_125_vr_storage_5   STORAGE      0.00     0.00     0.00    85  17:10        0.00
  c_124_storage        STORAGE      0.04     0.05    14.27   100  13:00        0.05
  c_136_vr_storage_5   STORAGE      0.00     0.00     0.00   127  19:05        0.00
  c_135_vr_storage_5   STORAGE      0.00     0.00     0.00   127  18:57        0.00
  c_131_vr_storage_5   STORAGE      0.00     0.00     0.00   127  19:00        0.00
  c_130_vr_storage_5   STORAGE      0.00     0.00     0.00   127  18:55        0.00
  c_134_vr_storage_5   STORAGE      0.00     0.00     0.00   127  18:56        0.00
  c_132_vr_storage_5   STORAGE      0.00     0.00     0.00   127  18:55        0.00
  Aalst_gemaal         STORAGE      0.16     2.50     2.50   128  00:20        2.50
  pre_ontvangstkelder  STORAGE      3.42    24.56    14.06   100  08:36       24.56
  c_150_vr_storage_57  STORAGE      0.00     0.01     0.01    99  05:05        0.01
  c_123_vr_storage_40  STORAGE      0.00     0.00     0.00    99  04:56        0.00
  c_143_vr_storage_70  STORAGE      0.00     0.03     0.03   127  20:00        0.03
  c_147_vr_storage_4   STORAGE      0.00     0.00     0.00    99  04:35        0.00
  c_160_vr_storage_8   STORAGE      0.00     0.00     0.00   127  19:00        0.00
  c_145_vr_storage_4   STORAGE      0.00     0.00     0.00    85  17:05        0.00
  c_144_vr_storage_19  STORAGE      0.00     0.00     0.00    99  04:45        0.00
  c_142_vr_storage_35  STORAGE      0.00     0.00     0.00   127  19:20        0.00
  c_148_vr_storage_12  STORAGE      0.00     0.00     0.00    99  04:38        0.00
  c_149_vr_storage_17  STORAGE      0.00     0.00     0.00    99  04:45        0.00
  c_151_vr_storage_22  STORAGE      0.00     0.00     0.00    99  04:45        0.00
  c_161_vr_storage_32  STORAGE      0.00     0.00     0.00   127  19:17        0.00
  c_138_vr_storage_22  STORAGE      0.00     0.00     0.00    99  04:45        0.00
  c_139_vr_storage_8   STORAGE      0.00     0.00     0.00    99  04:37        0.00
  c_137_vr_storage_4   STORAGE      0.00     0.00     0.00    85  17:05        0.00
  c_122_vr_storage_29  STORAGE      0.00     0.00     0.00    99  04:35        0.00
  c_121_vr_storage_12  STORAGE      0.00     0.00     0.00   127  19:00        0.00
  c_120_vr_storage_8   STORAGE      0.00     0.00     0.00    99  04:34        0.00
  c_119_vr_storage_80  STORAGE      0.00     0.03     0.03   127  19:45        0.03
  c_100_vr_storage_10  STORAGE      0.00     0.00     0.00    99  04:30        0.00
  c_118_vr_storage_13  STORAGE      0.00     0.00     0.00    99  04:31        0.00
  c_116_vr_storage_15  STORAGE      0.00     0.00     0.00    99  04:37        0.00
  c_114_vr_storage_10  STORAGE      0.00     0.00     0.00    99  04:30        0.00
  c_112_vr_storage_21  STORAGE      0.00     0.00     0.00    99  04:25        0.00
  c_107_vr_storage_36  STORAGE      0.00     0.00     0.00   127  19:15        0.00
  c_107_2_vr_storage_12 STORAGE      0.00     0.00     0.00    99  04:35        0.00
  c_106_vr_storage_13  STORAGE      0.00     0.00     0.00    99  04:35        0.00
  c_99_vr_storage_41   STORAGE      0.00     0.00     0.00   127  19:15        0.00
  c_103_vr_storage_8   STORAGE      0.00     0.00     0.00    99  04:29        0.00
  c_98_vr_storage_20   STORAGE      0.00     0.00     0.00    99  04:39        0.00
  gb127                STORAGE      0.01     0.95     0.95   127  19:15        0.95
  c_123                STORAGE      0.09    11.82    11.82   127  22:35       11.82
  c_122                STORAGE      0.47     7.83     7.83   127  22:55        7.83
  c_112                STORAGE      0.02     1.73     1.73    99  04:55        1.73
  c_99                 STORAGE      0.02     5.57     5.57   127  21:20        5.57
  c_119_1              STORAGE      0.09     5.07     5.07   127  20:20        5.07
  c_119_2              STORAGE      0.05     7.04     7.04   127  21:00        7.04
  c_119_3              STORAGE      0.07    11.20    11.20   127  22:55       11.20
  
  
  *******************
  Node Inflow Summary
  *******************
  
  -------------------------------------------------------------------------------------------------
                                  Maximum  Maximum                  Lateral       Total        Flow
                                  Lateral    Total  Time of Max      Inflow      Inflow     Balance
                                   Inflow   Inflow   Occurrence      Volume      Volume       Error
  Node                 Type           CMS      CMS  days hr:min    10^6 ltr    10^6 ltr     Percent
  -------------------------------------------------------------------------------------------------
  Nod_100              JUNCTION     0.000   10.019     0  00:00           0    1.95e+03       0.000
  Nod_890              JUNCTION     0.000    0.725     0  00:31           0         118       0.191
  Nod_891              JUNCTION     0.000    0.442     0  00:32           0        62.1       0.178
  Nod_892              JUNCTION     0.000    0.263     0  00:30           0        23.5       0.191
  Nod_A*HLCMRZ1135     JUNCTION     0.000    0.317     0  00:00           0        4.56       0.826
  Nod_103              JUNCTION     0.000    0.817     0  00:05           0    1.94e+03       0.063
  Nod_104              JUNCTION     0.000    0.593     1  14:18           0    2.01e+03       0.002
  Nod_105              JUNCTION     0.000    0.552     1  14:30           0    1.96e+03      -0.003
  Nod_106              JUNCTION     0.000    0.555     1  14:26           0    1.96e+03       0.000
  Nod_107              JUNCTION     0.000    0.559     1  14:22           0    1.96e+03       0.195
  Nod_108              JUNCTION     0.000    0.577     1  14:16           0    1.96e+03      -0.115
  Nod_109              JUNCTION     0.000    0.583   165  01:19           0    1.96e+03      -0.014
  Nod_110              JUNCTION     0.000    2.500    18  02:13           0    1.01e+04       0.002
  Nod_111              JUNCTION     0.000    2.500    99  09:03           0    1.01e+04       0.004
  Nod_112              JUNCTION     0.000    2.500   131  22:27           0    1.01e+04       0.007
  Nod_113              JUNCTION     0.000    2.499   131  22:28           0    1.01e+04       0.002
  Nod_114              JUNCTION     0.000    2.498   131  22:29           0    1.01e+04      -0.000
  Nod_115              JUNCTION     0.000    2.535   100  10:01           0    1.01e+04       0.000
  Nod_116              JUNCTION     0.000    2.536   100  10:01           0    1.01e+04       0.001
  Nod_117              JUNCTION     0.000    2.539   100  10:03           0    1.01e+04       0.015
  Nod_118              JUNCTION     0.000    4.396    99  06:31           0    1.15e+04       0.019
  Nod_119              JUNCTION     0.000    0.981     0  00:01           0    1.96e+03      -0.001
  Nod_120              JUNCTION     0.000    0.691     0  00:02           0    1.96e+03      -0.002
  Nod_121              JUNCTION     0.000    0.766   165  01:43           0    1.96e+03      -0.002
  Nod_122              JUNCTION     0.000    1.249   149  20:27           0    1.96e+03      -0.000
  Nod_123              JUNCTION     0.000    3.680   149  20:29           0     1.2e+04      -0.000
  Nod_124              JUNCTION     0.000    5.304   131  21:52           0     1.2e+04       0.001
  Nod_126              JUNCTION     0.000    2.100    99  06:57           0    8.77e+03      -0.006
  Nod_127              JUNCTION     0.000    2.100     0  00:05           0    8.77e+03       0.002
  Nod_128              JUNCTION     0.000    2.116    99  05:12           0    8.77e+03      -0.006
  Nod_129              JUNCTION     0.000    3.395     0  00:04           0    8.77e+03      -0.004
  Nod_130              JUNCTION     0.000   10.805     0  00:00           0    1.01e+04       0.000
  Nod_131              JUNCTION     0.000    9.744     0  00:01           0    1.01e+04       0.001
  Nod_132              JUNCTION     0.000    7.133     0  00:05           0    1.01e+04       0.000
  Nod_133              JUNCTION     0.000    5.318     0  00:05           0    1.01e+04       0.000
  Nod_134              JUNCTION     0.000    4.520     0  00:06           0    1.01e+04       0.001
  Nod_135              JUNCTION     0.000    3.567     0  00:07           0    1.01e+04       0.001
  Nod_136              JUNCTION     0.000    3.269     0  00:09           0    1.01e+04       0.017
  Nod_222              JUNCTION     0.000    5.870    99  06:40           0    1.15e+04      -0.019
  Nod_233              JUNCTION     0.000    2.722    99  06:59           0    1.01e+04      -0.010
  Nod_244              JUNCTION     0.000    2.539   100  10:03           0    1.01e+04      -0.001
  Nod_266              JUNCTION     0.000    2.539   100  10:03           0    1.01e+04       0.000
  Nod_277              JUNCTION     0.000    2.539   100  10:03           0    1.01e+04       0.000
  J1                   JUNCTION     0.000    0.800     0  13:50           0    2.56e+03      -0.655
  J119                 JUNCTION     0.000    7.014    99  05:45           0    1.17e+03      -0.763
  cso_Geldrop          OUTFALL      0.000    2.548    85  19:45           0        18.4       0.000
  cso_gb_136           OUTFALL      0.000    0.744    85  20:05           0        8.06       0.000
  cso_RZ               OUTFALL      0.000    0.000     0  00:00           0           0       0.000 ltr
  cso_ES_1             OUTFALL      0.000    4.564   127  21:55           0        43.1       0.000
  cso_AALST            OUTFALL      0.000    1.817   128  00:20           0        32.5       0.000
  out_ES               OUTFALL      0.000    3.888    17  22:05           0    1.36e+04       0.000
  out_RZ               OUTFALL      0.000    3.020   100  08:36           0     1.2e+04       0.000
  cso_gb127            OUTFALL      0.000    3.396   127  19:15           0        46.8       0.000
  cso_c_122            OUTFALL      0.000    0.000     0  00:00           0           0       0.000 ltr
  cso_c_119_1          OUTFALL      0.000    2.406   127  20:20           0        50.1       0.000
  cso_c_112            OUTFALL      0.000    0.725    99  04:55           0        5.93       0.000
  cso_c_99             OUTFALL      0.000    0.000     0  00:00           0           0       0.000 ltr
  cso_c_123            OUTFALL      0.000    0.000     0  00:00           0           0       0.000 ltr
  cso_c_119_2          OUTFALL      0.000    1.065   127  21:00           0        4.47       0.000
  cso_c_119_3          OUTFALL      0.000    0.000     0  00:00           0           0       0.000 ltr
  c_24_vr_storage_5    STORAGE     20.939   21.777   127  19:00    1.34e+04    1.36e+04      -0.000
  c_23_vr_storage_7    STORAGE      0.030    0.030   127  19:00        20.7        20.7      -0.000
  c_22_vr_storage_5    STORAGE      0.015    0.015   127  19:00        2.38        2.38      -0.000
  c_21_vr_storage_7    STORAGE      0.032    0.032   127  19:00          20          20      -0.000
  c_12_vr_storage_8    STORAGE      0.038    0.038   127  19:00        30.8        30.8      -0.000
  c_20_vr_storage_13   STORAGE      0.094    0.094   127  19:00        14.9        14.9      -0.000
  c_19_vr_storage_7    STORAGE      0.033    0.033   127  19:00        17.2        17.2      -0.000
  c_10_vr_storage_10   STORAGE      0.037    0.037   127  19:30        8.43        8.43      -0.000
  c_16_vr_storage_20   STORAGE      0.248    0.248   127  19:00        39.3        39.3      -0.000
  c_15_vr_storage_24   STORAGE      0.320    0.320   127  19:00        68.3        68.3      -0.000
  c_14_vr_storage_24   STORAGE      0.334    0.334   127  19:00        52.9        52.9      -0.000
  pipe_ES              STORAGE      0.000   21.649   127  19:00           0    1.36e+04       0.000
  pipe_Geldrop         STORAGE      0.000    7.161   127  18:55           0    2.58e+03      -0.000
  gb_136               STORAGE      0.000    1.528   127  19:05           0         671      -0.000
  c_129_vr_storage_5   STORAGE      0.163    0.163    85  17:15        10.2        10.2      -0.000
  c_128_vr_storage_5   STORAGE      6.611    7.261   127  18:55    1.77e+03    2.58e+03       0.000
  c_1285_vr_storage_5  STORAGE      0.174    0.174   127  18:55        19.1        19.1      -0.000
  c_127_vr_storage_5   STORAGE      5.178    6.159    85  17:15         405         834       0.000
  c_126_vr_storage_5   STORAGE      0.561    0.981    85  17:15         412         429      -0.000
  c_125_vr_storage_5   STORAGE      0.424    0.424    85  17:10        16.3        16.3      -0.000
  c_124_storage        STORAGE      0.224    0.224    85  17:10        69.1         118       0.004
  c_136_vr_storage_5   STORAGE      0.684    1.529   127  19:00         434         671      -0.000
  c_135_vr_storage_5   STORAGE      0.339    0.339   127  18:55        90.5        90.5      -0.000
  c_131_vr_storage_5   STORAGE      0.272    0.349   127  19:00        86.2         108      -0.000
  c_130_vr_storage_5   STORAGE      0.077    0.077   127  18:55        21.7        21.7      -0.000
  c_134_vr_storage_5   STORAGE      0.084    0.084   127  18:55        20.5        20.5      -0.000
  c_132_vr_storage_5   STORAGE      0.077    0.077   127  18:55        17.9        17.9      -0.000
  Aalst_gemaal         STORAGE      0.000   15.904   127  20:20           0    8.74e+03      -0.777
  pre_ontvangstkelder  STORAGE      0.000    6.409   131  21:48           0     1.2e+04       0.003
  c_150_vr_storage_57  STORAGE      5.523    5.523    99  04:35         655         655      -0.000
  c_123_vr_storage_40  STORAGE      2.308    2.308    99  04:35         336         336      -0.000
  c_143_vr_storage_70  STORAGE      3.820    9.101   127  19:30    1.84e+03    3.43e+03       0.000
  c_147_vr_storage_4   STORAGE      0.130    0.130    85  17:05        8.15        8.15      -0.000
  c_160_vr_storage_8   STORAGE      0.188    0.188    85  17:05         819         819      -0.000
  c_145_vr_storage_4   STORAGE      0.059    0.059    85  17:05        12.6        12.6      -0.000
  c_144_vr_storage_19  STORAGE      0.480    0.480    99  04:35        68.1        68.1      -0.000
  c_142_vr_storage_35  STORAGE      1.550    1.550    99  04:35         268         268      -0.000
  c_148_vr_storage_12  STORAGE      0.306    0.306    99  04:35        35.3        35.3      -0.000
  c_149_vr_storage_17  STORAGE      0.367    0.367    99  04:35        33.2        33.2      -0.000
  c_151_vr_storage_22  STORAGE      0.683    0.683    99  04:35          65          65      -0.000
  c_161_vr_storage_32  STORAGE      1.276    1.276   127  18:55         122         122      -0.000
  c_138_vr_storage_22  STORAGE      0.630    0.799    99  04:35         113         151      -0.000
  c_139_vr_storage_8   STORAGE      0.131    0.131    99  04:35        8.68        8.68      -0.000
  c_137_vr_storage_4   STORAGE      0.060    0.060    85  17:05        29.2        29.2      -0.000
  c_122_vr_storage_29  STORAGE      1.667    1.667    85  17:00         167         167      -0.000
  c_121_vr_storage_12  STORAGE      0.121    0.210   127  18:55         142         169      -0.000
  c_120_vr_storage_8   STORAGE      0.099    0.099    99  04:30          27          27      -0.000
  c_119_vr_storage_80  STORAGE      6.556    7.039    99  04:30    1.13e+03    1.17e+03      -0.000
  c_100_vr_storage_10  STORAGE      0.185    0.185    99  04:25          22          22      -0.000
  c_118_vr_storage_13  STORAGE      0.304    0.304    99  04:30        19.3        19.3      -0.000
  c_116_vr_storage_15  STORAGE      0.282    0.439    99  04:30        42.9        64.6      -0.000
  c_114_vr_storage_10  STORAGE      0.159    0.159    99  04:30        21.7        21.7      -0.000
  c_112_vr_storage_21  STORAGE      1.366    1.366    85  17:00        79.1        79.1      -0.000
  c_107_vr_storage_36  STORAGE      1.266    1.646    99  04:35    2.11e+03    2.34e+03       0.000
  c_107_2_vr_storage_12 STORAGE      0.176    0.176    99  04:30        19.3        19.3      -0.000
  c_106_vr_storage_13  STORAGE      0.235    0.235    99  04:30         209         209      -0.000
  c_99_vr_storage_41   STORAGE      1.665    1.773    99  04:30         281         297      -0.000
  c_103_vr_storage_8   STORAGE      0.108    0.108    99  04:25        16.4        16.4      -0.000
  c_98_vr_storage_20   STORAGE      0.504    0.504    99  04:30        86.6        86.6      -0.000
  gb127                STORAGE      0.000    5.682    85  17:15           0         834      -0.001
  c_123                STORAGE      0.000    2.307    99  05:10           0         336      -0.001
  c_122                STORAGE      0.000    1.666    85  17:25           0         167      -0.001
  c_112                STORAGE      0.000    1.366    85  17:15           0        79.1      -0.002
  c_99                 STORAGE      0.000    1.772    99  05:05           0         297      -0.001
  c_119_1              STORAGE      0.000   10.000     0  00:00           0         470      -0.000
  c_119_2              STORAGE      0.000   10.000     0  00:00           0         330      -0.000
  c_119_3              STORAGE      0.000   10.000     0  00:00           0         377      -0.000
  
  
  **********************
  Node Surcharge Summary
  **********************
  
  Surcharging occurs when water rises above the top of the highest conduit.
  ---------------------------------------------------------------------
                                               Max. Height   Min. Depth
                                   Hours       Above Crown    Below Rim
  Node                 Type      Surcharged         Meters       Meters
  ---------------------------------------------------------------------
  Nod_100              JUNCTION      217.86          1.750        0.000
  Nod_890              JUNCTION        0.88          0.006        0.894
  Nod_108              JUNCTION        7.55          0.061        6.869
  Nod_109              JUNCTION      118.43          0.806       25.874
  Nod_114              JUNCTION       20.37          0.132        5.998
  Nod_115              JUNCTION       66.57          0.479        6.021
  Nod_116              JUNCTION       69.71          0.497        6.033
  Nod_117              JUNCTION      104.88          0.754        6.176
  Nod_118              JUNCTION      121.91          0.895        6.305
  Nod_119              JUNCTION      127.96          0.885       25.875
  Nod_120              JUNCTION      137.11          0.953       25.877
  Nod_121              JUNCTION      152.01          1.062       25.878
  Nod_122              JUNCTION      166.42          1.181       25.879
  Nod_123              JUNCTION      171.13          1.230       25.880
  Nod_124              JUNCTION      176.52          1.276       25.914
  Nod_222              JUNCTION      135.54          1.023        6.327
  Nod_233              JUNCTION      148.12          1.068       25.612
  Nod_244              JUNCTION      151.84          1.088       25.672
  Nod_266              JUNCTION      153.57          1.092       25.738
  Nod_277              JUNCTION      160.48          1.137       25.803
  J1                   JUNCTION     4416.00          4.000        0.000
  J119                 JUNCTION     4416.00      21203.378    99978795.622
  
  
  *********************
  Node Flooding Summary
  *********************
  
  Flooding refers to all water that overflows a node, whether it ponds or not.
  --------------------------------------------------------------------------
                                                             Total   Maximum
                                 Maximum   Time of Max       Flood    Ponded
                        Hours       Rate    Occurrence      Volume     Depth
  Node                 Flooded       CMS   days hr:min    10^6 ltr    Meters
  --------------------------------------------------------------------------
  Nod_100                 0.31     9.992      0  00:00       2.807     0.000
  J1                    587.19     0.662     85  17:10      12.746     0.000
  
  
  **********************
  Storage Volume Summary
  **********************
  
  ------------------------------------------------------------------------------------------------
                         Average    Avg   Evap  Exfil     Maximum    Max    Time of Max    Maximum
                          Volume   Pcnt   Pcnt   Pcnt      Volume   Pcnt     Occurrence    Outflow
  Storage Unit           1000 m³   Full   Loss   Loss     1000 m³   Full    days hr:min        CMS
  ------------------------------------------------------------------------------------------------
  c_24_vr_storage_5        0.158    0.0    0.0    0.0       3.423    0.0     127  19:30     21.649
  c_23_vr_storage_7        0.000    0.0    0.0    0.0       0.005    0.0     127  19:00      0.030
  c_22_vr_storage_5        0.000    0.0    0.0    0.0       0.002    0.0     127  19:00      0.015
  c_21_vr_storage_7        0.000    0.0    0.0    0.0       0.005    0.0     127  19:00      0.032
  c_12_vr_storage_8        0.001    0.0    0.0    0.0       0.017    0.0     127  19:01      0.038
  c_20_vr_storage_13       0.001    0.0    0.0    0.0       0.070    0.0     127  19:05      0.094
  c_19_vr_storage_7        0.000    0.0    0.0    0.0       0.005    0.0     127  19:00      0.033
  c_10_vr_storage_10       0.000    0.0    0.0    0.0       0.017    0.0     127  19:35      0.037
  c_16_vr_storage_20       0.003    0.0    0.0    0.0       0.256    0.0     127  19:10      0.248
  c_15_vr_storage_24       0.006    0.0    0.0    0.0       0.424    0.0     127  19:15      0.320
  c_14_vr_storage_24       0.004    0.0    0.0    0.0       0.443    0.0     127  19:15      0.334
  pipe_ES                 15.763    8.0    0.0    0.0     172.463   87.1     127  21:55      8.452
  pipe_Geldrop             0.470    0.9    0.0    0.0      28.567   57.1      85  19:45      3.348
  gb_136                   0.152    1.0    0.0    0.0       8.970   59.8      85  20:05      0.935
  c_129_vr_storage_5       0.000    0.0    0.0    0.0       0.024    0.0     127  18:55      0.163
  c_128_vr_storage_5       0.423    0.0    0.0    0.0       1.617    0.0     127  18:56      7.161
  c_1285_vr_storage_5      0.000    0.0    0.0    0.0       0.026    0.0     127  18:55      0.173
  c_127_vr_storage_5       0.005    0.0    0.0    0.0       0.892    0.0     127  18:56      5.682
  c_126_vr_storage_5       0.001    0.0    0.0    0.0       0.193    0.0      85  17:15      0.981
  c_125_vr_storage_5       0.000    0.0    0.0    0.0       0.053    0.0      85  17:10      0.420
  c_124_storage           36.502    0.4    0.0    0.0      50.388    0.5     100  13:00      0.008
  c_136_vr_storage_5       0.006    0.0    0.0    0.0       0.353    0.0     127  19:05      1.528
  c_135_vr_storage_5       0.001    0.0    0.0    0.0       0.051    0.0     127  18:57      0.338
  c_131_vr_storage_5       0.001    0.0    0.0    0.0       0.064    0.0     127  19:00      0.349
  c_130_vr_storage_5       0.000    0.0    0.0    0.0       0.012    0.0     127  18:55      0.077
  c_134_vr_storage_5       0.000    0.0    0.0    0.0       0.013    0.0     127  18:56      0.084
  c_132_vr_storage_5       0.000    0.0    0.0    0.0       0.012    0.0     127  18:55      0.077
  Aalst_gemaal             3.665    2.5    0.0    0.0     144.402   99.7     128  00:20      3.917
  pre_ontvangstkelder      0.034   11.8    0.0    0.0       0.246   84.7     100  08:36      4.101
  c_150_vr_storage_57      0.093    0.0    0.0    0.0      14.236    0.1      99  05:05      5.522
  c_123_vr_storage_40      0.044    0.0    0.0    0.0       4.666    0.0      99  04:56      2.307
  c_143_vr_storage_70      0.775    0.0    0.0    0.0      34.279    0.3     127  20:00      9.101
  c_147_vr_storage_4       0.000    0.0    0.0    0.0       0.019    0.0      99  04:35      0.129
  c_160_vr_storage_8       0.025    0.0    0.0    0.0       0.082    0.0     127  19:00      0.187
  c_145_vr_storage_4       0.000    0.0    0.0    0.0       0.008    0.0      85  17:05      0.059
  c_144_vr_storage_19      0.004    0.0    0.0    0.0       0.490    0.0      99  04:45      0.479
  c_142_vr_storage_35      0.030    0.0    0.0    0.0       2.807    0.0     127  19:20      1.549
  c_148_vr_storage_12      0.001    0.0    0.0    0.0       0.136    0.0      99  04:38      0.306
  c_149_vr_storage_17      0.002    0.0    0.0    0.0       0.271    0.0      99  04:45      0.367
  c_151_vr_storage_22      0.004    0.0    0.0    0.0       0.695    0.0      99  04:45      0.682
  c_161_vr_storage_32      0.012    0.0    0.0    0.0       2.007    0.0     127  19:17      1.275
  c_138_vr_storage_22      0.009    0.0    0.0    0.0       0.837    0.0      99  04:45      0.794
  c_139_vr_storage_8       0.000    0.0    0.0    0.0       0.058    0.0      99  04:37      0.131
  c_137_vr_storage_4       0.000    0.0    0.0    0.0       0.008    0.0      85  17:05      0.060
  c_122_vr_storage_29      0.016    0.0    0.0    0.0       2.523    0.0      99  04:35      1.666
  c_121_vr_storage_12      0.002    0.0    0.0    0.0       0.102    0.0     127  19:00      0.210
  c_120_vr_storage_8       0.001    0.0    0.0    0.0       0.043    0.0      99  04:34      0.099
  c_119_vr_storage_80      0.314    0.0    0.0    0.0      26.716    0.3     127  19:45      7.014
  c_100_vr_storage_10      0.001    0.0    0.0    0.0       0.082    0.0      99  04:30      0.185
  c_118_vr_storage_13      0.001    0.0    0.0    0.0       0.224    0.0      99  04:31      0.304
  c_116_vr_storage_15      0.003    0.0    0.0    0.0       0.340    0.0      99  04:37      0.435
  c_114_vr_storage_10      0.001    0.0    0.0    0.0       0.070    0.0      99  04:30      0.159
  c_112_vr_storage_21      0.005    0.0    0.0    0.0       1.202    0.0      99  04:25      1.366
  c_107_vr_storage_36      0.033    0.0    0.0    0.0       2.846    0.0     127  19:15      1.624
  c_107_2_vr_storage_12     0.000    0.0    0.0    0.0       0.077    0.0      99  04:35      0.176
  c_106_vr_storage_13      0.002    0.0    0.0    0.0       0.162    0.0      99  04:35      0.235
  c_99_vr_storage_41       0.039    0.0    0.0    0.0       3.639    0.0     127  19:15      1.772
  c_103_vr_storage_8       0.000    0.0    0.0    0.0       0.048    0.0      99  04:29      0.108
  c_98_vr_storage_20       0.005    0.0    0.0    0.0       0.503    0.0      99  04:39      0.504
  gb127                    0.127    0.7    0.0    0.0       9.529   51.2     127  19:15      3.711
  c_123                    0.095    0.3    0.0    0.0      11.821   39.4     127  22:35      0.284
  c_122                    0.474    4.7    0.0    0.0       7.827   78.3     127  22:55      0.031
  c_112                    0.021    1.1    0.0    0.0       1.733   86.7      99  04:55      0.786
  c_99                     0.017    0.1    0.0    0.0       5.574   27.9     127  21:20      0.556
  c_119_1                  0.094    0.9    0.0    0.0       5.074   50.7     127  20:20      2.649
  c_119_2                  0.054    0.5    0.0    0.0       7.043   70.4     127  21:00      1.405
  c_119_3                  0.073    0.4    0.0    0.0      11.201   56.0     127  22:55      0.389
  
  
  ***********************
  Outfall Loading Summary
  ***********************
  
  -----------------------------------------------------------
                         Flow       Avg       Max       Total
                         Freq      Flow      Flow      Volume
  Outfall Node           Pcnt       CMS       CMS    10^6 ltr
  -----------------------------------------------------------
  cso_Geldrop            0.21     0.548     2.548      18.372
  cso_gb_136             0.31     0.163     0.744       8.062
  cso_RZ                 0.00     0.000     0.000       0.000
  cso_ES_1               0.16     1.666     4.564      43.132
  cso_AALST              0.27     0.747     1.817      32.454
  out_ES                99.81     0.856     3.888   13583.852
  out_RZ               100.00     0.756     3.020   12012.663
  cso_gb127              0.37     0.804     3.396      46.806
  cso_c_122              0.00     0.000     0.000       0.000
  cso_c_119_1            0.51     0.623     2.406      50.054
  cso_c_112              0.20     0.186     0.725       5.934
  cso_c_99               0.00     0.000     0.000       0.000
  cso_c_123              0.00     0.000     0.000       0.000
  cso_c_119_2            0.11     0.263     1.065       4.474
  cso_c_119_3            0.00     0.000     0.000       0.000
  -----------------------------------------------------------
  System                13.46     6.611    12.660   25805.804
  
  
  ********************
  Link Flow Summary
  ********************
  
  -----------------------------------------------------------------------------
                                 Maximum  Time of Max   Maximum    Max/    Max/
                                  |Flow|   Occurrence   |Veloc|    Full    Full
  Link                 Type          CMS  days hr:min     m/sec    Flow   Depth
  -----------------------------------------------------------------------------
  Con_158              CONDUIT     0.442     0  00:32      0.90    0.01    0.98
  Con_159              CONDUIT     0.263     0  00:30      0.40    0.04    0.96
  Con_160              CONDUIT     0.317     0  00:00      1.04    0.02    0.97
  Con_101              CONDUIT     0.817     0  00:05      0.91    2.54    0.84
  Con_102              CONDUIT     0.593     1  14:18      0.67    1.30    0.77
  Con_103              CONDUIT     0.555     1  14:26      0.76    0.73    0.73
  Con_104              CONDUIT     0.552     1  14:30      1.51    0.55    0.70
  Con_105              CONDUIT     0.559     1  14:22      0.85    1.20    0.75
  Con_106              CONDUIT     0.577     1  14:16      0.86    0.75    0.86
  Con_107              CONDUIT     0.583   165  01:19      0.77    0.14    1.00
  Con_108              CONDUIT     0.981     0  00:01      1.30    0.22    1.00
  Con_109              CONDUIT     2.500    99  09:03      1.09    0.42    0.76
  Con_110              CONDUIT     2.500   131  22:27      1.21    0.39    0.83
  Con_157              CONDUIT     0.725     0  00:31      0.91    0.02    1.00
  Con_111              CONDUIT     2.499   131  22:28      0.80    0.44    1.00
  Con_112              CONDUIT     2.498   131  22:29      1.01    0.34    0.95
  Con_113              CONDUIT     2.535   100  10:01      1.20    0.59    1.00
  Con_114              CONDUIT     2.536   100  10:01      1.19    0.64    1.00
  Con_115              CONDUIT     2.539   100  10:03      1.17    0.61    1.00
  Con_116              CONDUIT     2.605   127  19:57      1.21    0.63    1.00
  Con_117              CONDUIT     5.870    99  06:40      2.13    0.39    1.00
  Con_118              CONDUIT     0.691     0  00:02      1.08    0.18    1.00
  Con_119              CONDUIT     0.766   165  01:43      0.87    0.15    1.00
  Con_120              CONDUIT     0.805   165  01:46      0.71    0.17    1.00
  Con_121              CONDUIT     1.184    40  00:06      0.78    0.23    1.00
  Con_122              CONDUIT     4.093    32  20:57      3.42    0.88    1.00
  Con_123              CONDUIT     6.409   131  21:48      6.59    0.07    1.00
  Con_125              CONDUIT     2.100    99  06:56      1.01    0.91    0.73
  Con_126              CONDUIT     2.116    99  05:12      1.06    1.45    0.74
  Con_127              CONDUIT     2.100    99  06:57      1.72    0.33    0.70
  Con_128              CONDUIT     2.554     0  00:04      1.56    1.07    0.70
  Con_129              CONDUIT     9.744     0  00:01      4.13    1.27    0.88
  Con_130              CONDUIT     7.133     0  00:05      1.83    1.50    0.72
  Con_140              CONDUIT     5.318     0  00:05      2.11    1.00    0.65
  Con_141              CONDUIT     4.520     0  00:06      1.59    0.95    0.60
  Con_142              CONDUIT     3.567     0  00:07      1.58    0.75    0.62
  Con_143              CONDUIT     3.269     0  00:09      1.74    0.68    0.64
  Con_144              CONDUIT     2.500    18  02:13      1.00    0.67    0.66
  Con_152              CONDUIT     2.722    99  06:59      1.09    1.02    1.00
  Con_153              CONDUIT     2.539   100  10:03      1.08    0.88    1.00
  Con_154              CONDUIT     2.539   100  10:03      1.14    0.99    1.00
  Con_155              CONDUIT     2.539   100  10:03      1.10    0.78    1.00
  Con_156              CONDUIT     2.558   131  21:44      1.38    0.69    1.00
  eeneind_out          CONDUIT     0.054   165  01:11      1.80    0.59    0.60
  P_c_24_d_5           PUMP       21.649   127  19:00              2.16
  P_c_23_d_7           PUMP        0.030   127  19:00              0.00
  P_c_22_d_5           PUMP        0.015   127  19:00              0.00
  P_c_21_d_7           PUMP        0.032   127  19:00              0.00
  P_c_12_d_8           PUMP        0.038   127  19:05              0.00
  P_c_20_d_13          PUMP        0.094   127  19:10              0.01
  P_c_19_d_7           PUMP        0.033   127  19:00              0.00
  P_c_10_d_10          PUMP        0.037   127  19:35              0.00
  P_c_16_d_20          PUMP        0.248   127  19:15              0.02
  P_c_15_d_24          PUMP        0.320   127  19:20              0.03
  P_c_14_d_24          PUMP        0.334   127  19:20              0.03
  P_c_129_d_5          PUMP        0.163    85  17:15              0.02
  P_c_128_d_5          PUMP        7.161   127  18:55              0.72
  P_c_1285_d_5         PUMP        0.173   127  18:55              0.02
  P_c_127_d_5          PUMP        5.682    85  17:15              0.57
  P_c_126_d_5          PUMP        0.981    85  17:15              0.10
  P_c_125_d_5          PUMP        0.420    85  17:10              0.04
  P_c_136_d_5          PUMP        1.528   127  19:05              0.15
  P_c_135_d_5          PUMP        0.338   127  18:55              0.03
  P_c_131_d_5          PUMP        0.349   127  19:00              0.03
  P_c_130_d_5          PUMP        0.077   127  18:55              0.01
  P_c_134_d_5          PUMP        0.084   127  18:55              0.01
  P_c_132_d_5          PUMP        0.077   127  18:55              0.01
  Con_1119.1           PUMP        0.191     1  05:20              1.00
  P_riool_zuid_out     PUMP        3.020   100  08:36              0.64
  P_eindhoven_out      PUMP        3.888    17  22:05              1.00
  P_c_150_d_57         PUMP        5.522    99  05:25              0.55
  P_c_123_d_40         PUMP        2.307    99  05:10              0.23
  P_c_143_d_70         PUMP        9.101   127  20:35              0.91
  P_c_147_d_4          PUMP        0.129    85  17:05              0.01
  P_c_160_d_8          PUMP        0.187    85  17:10              0.02
  P_c_145_d_4          PUMP        0.059    85  17:05              0.01
  P_c_144_d_19         PUMP        0.479    99  04:50              0.05
  P_c_142_d_35         PUMP        1.549    99  05:05              0.15
  P_c_148_d_12         PUMP        0.306    99  04:40              0.03
  P_c_149_d_17         PUMP        0.367    99  04:50              0.04
  P_c_151_d_22         PUMP        0.682    99  04:50              0.07
  P_c_161_d_32         PUMP        1.275   127  19:20              0.13
  P_c_138_d_22         PUMP        0.794    99  04:55              0.08
  P_c_139_d_8          PUMP        0.131    99  04:40              0.01
  P_c_137_d_4          PUMP        0.060    85  17:05              0.01
  P_c_122_d_29         PUMP        1.666    85  17:25              0.17
  P_c_121_d_12         PUMP        0.210   127  19:00              0.02
  P_c_120_d_8          PUMP        0.099    99  04:35              0.01
  P_c_119_d_80         PUMP        7.014    99  05:45              0.70
  P_c_100_d_10         PUMP        0.185    99  04:30              0.02
  P_c_118_d_13         PUMP        0.304    99  04:40              0.03
  P_c_116_d_15         PUMP        0.435    99  04:40              0.04
  P_c_114_d_10         PUMP        0.159    99  04:35              0.02
  P_c_112_d_21         PUMP        1.366    85  17:15              0.14
  P_c_107_d_36         PUMP        1.624    99  05:05              0.16
  P_c_107_2_d_12       PUMP        0.176    99  04:35              0.02
  P_c_106_d_13         PUMP        0.235    99  04:40              0.02
  P_c_99_d_41          PUMP        1.772    99  05:05              0.18
  P_c_103_d_8          PUMP        0.108    99  04:30              0.01
  P_c_98_d_20          PUMP        0.504    99  04:45              0.05
  P_aalst_1            PUMP        0.560     0  00:05              1.00
  P_aalst_2            PUMP        0.560     0  00:05              1.00
  P_aalst_3            PUMP        0.490     0  00:05              1.00
  P_aalst_4            PUMP        0.490     0  00:00              1.00
  P_pipe_Geldrop       PUMP        0.800     0  13:50              1.00
  P_gb127              PUMP        0.316     0  13:25              1.00
  P_c_99               PUMP        0.556    17  21:00              1.00
  P_c_112              PUMP        0.061     0  13:20              1.00
  P_c_119_1            PUMP        0.243     0  00:00              1.00
  P_c_122              PUMP        0.031     0  13:25              1.00
  P_c_123              PUMP        0.284     1  17:20              1.00
  P_c_119_2            PUMP        0.340     0  00:00              1.00
  P_c_119_3            PUMP        0.389     0  00:00              1.00
  P_c_119_fr_040       PUMP       10.000     0  00:00              1.00
  P_c_119_fr_028       PUMP       10.000     0  00:00              1.00
  P_c_119_fr_032       PUMP       10.000     0  00:00              1.00
  P_geldrop_split_1    PUMP       10.000     0  00:00              1.00
  P_geldrop_split_2    PUMP       10.000     0  00:00              1.00
  weir_gb_136          WEIR        0.744    85  20:05                      0.03
  Con_A*HLCMRZ1135.1   WEIR        0.000     0  00:00                      0.00
  weir_ES              WEIR        4.564   127  21:55                      0.11
  Aalst_weir           WEIR        1.817   128  00:20                      0.06
  weir_gb127           WEIR        3.396   127  19:15                      0.09
  weir_pipe_Geldrop    WEIR        2.548    85  19:45                      0.08
  weir_c_123           WEIR        0.000     0  00:00                      0.00
  weir_c_99            WEIR        0.000     0  00:00                      0.00
  weir_c_112           WEIR        0.725    99  04:55                      0.03
  weir_c_119_1         WEIR        2.406   127  20:20                      0.07
  weir_c_122           WEIR        0.000     0  00:00                      0.00
  weir_c_119_2         WEIR        1.065   127  21:00                      0.04
  weir_c_119_3         WEIR        0.000     0  00:00                      0.00
  
  
  ***************************
  Flow Classification Summary
  ***************************
  
  -------------------------------------------------------------------------------------
                      Adjusted    ---------- Fraction of Time in Flow Class ---------- 
                       /Actual         Up    Down  Sub   Sup   Up    Down  Norm  Inlet 
  Conduit               Length    Dry  Dry   Dry   Crit  Crit  Crit  Crit  Ltd   Ctrl  
  -------------------------------------------------------------------------------------
  Con_158                 1.00   0.00  0.00  0.00  1.00  0.00  0.00  0.00  0.00  0.00
  Con_159                 1.00   0.00  0.00  0.00  1.00  0.00  0.00  0.00  0.00  0.00
  Con_160                 1.00   0.00  0.00  0.00  1.00  0.00  0.00  0.00  0.00  0.00
  Con_101                 1.00   0.00  0.00  0.00  0.81  0.00  0.00  0.19  0.00  0.00
  Con_102                 1.00   0.00  0.00  0.00  1.00  0.00  0.00  0.00  0.00  0.00
  Con_103                 1.00   0.00  0.00  0.00  1.00  0.00  0.00  0.00  0.33  0.00
  Con_104                 1.00   0.00  0.00  0.00  1.00  0.00  0.00  0.00  0.00  0.00
  Con_105                 1.00   0.00  0.00  0.00  1.00  0.00  0.00  0.00  0.00  0.00
  Con_106                 1.00   0.00  0.00  0.00  0.03  0.00  0.00  0.97  0.01  0.00
  Con_107                 1.00   0.00  0.00  0.00  1.00  0.00  0.00  0.00  0.03  0.00
  Con_108                 1.00   0.00  0.00  0.00  1.00  0.00  0.00  0.00  0.86  0.00
  Con_109                 1.00   0.00  0.00  0.00  1.00  0.00  0.00  0.00  0.00  0.00
  Con_110                 1.00   0.00  0.00  0.00  1.00  0.00  0.00  0.00  0.00  0.00
  Con_157                 1.00   0.00  0.00  0.00  1.00  0.00  0.00  0.00  0.00  0.00
  Con_111                 1.00   0.00  0.00  0.00  1.00  0.00  0.00  0.00  0.00  0.00
  Con_112                 1.00   0.00  0.00  0.00  1.00  0.00  0.00  0.00  0.90  0.00
  Con_113                 1.00   0.00  0.00  0.00  1.00  0.00  0.00  0.00  0.00  0.00
  Con_114                 1.00   0.00  0.00  0.00  1.00  0.00  0.00  0.00  0.00  0.00
  Con_115                 1.00   0.00  0.00  0.00  1.00  0.00  0.00  0.00  0.75  0.00
  Con_116                 1.00   0.00  0.00  0.00  1.00  0.00  0.00  0.00  0.37  0.00
  Con_117                 1.00   0.00  0.00  0.00  1.00  0.00  0.00  0.00  0.13  0.00
  Con_118                 1.00   0.00  0.00  0.00  1.00  0.00  0.00  0.00  0.00  0.00
  Con_119                 1.00   0.00  0.00  0.00  1.00  0.00  0.00  0.00  0.85  0.00
  Con_120                 1.00   0.00  0.00  0.00  1.00  0.00  0.00  0.00  0.26  0.00
  Con_121                 1.00   0.00  0.00  0.00  1.00  0.00  0.00  0.00  0.00  0.00
  Con_122                 1.00   0.00  0.00  0.00  0.06  0.94  0.00  0.00  0.00  0.00
  Con_123                 1.00   0.00  0.00  0.00  0.37  0.32  0.00  0.31  0.63  0.00
  Con_125                 1.00   0.00  0.00  0.00  1.00  0.00  0.00  0.00  0.74  0.00
  Con_126                 1.00   0.00  0.00  0.00  1.00  0.00  0.00  0.00  0.00  0.00
  Con_127                 1.00   0.00  0.00  0.00  1.00  0.00  0.00  0.00  0.91  0.00
  Con_128                 1.00   0.00  0.00  0.00  0.00  0.00  0.00  1.00  0.00  0.00
  Con_129                 1.00   0.00  0.00  0.00  1.00  0.00  0.00  0.00  0.93  0.00
  Con_130                 1.00   0.00  0.00  0.00  1.00  0.00  0.00  0.00  0.02  0.00
  Con_140                 1.00   0.00  0.00  0.00  1.00  0.00  0.00  0.00  0.00  0.00
  Con_141                 1.00   0.00  0.00  0.00  1.00  0.00  0.00  0.00  0.21  0.00
  Con_142                 1.00   0.00  0.00  0.00  1.00  0.00  0.00  0.00  0.00  0.00
  Con_143                 1.00   0.00  0.00  0.00  1.00  0.00  0.00  0.00  0.00  0.00
  Con_144                 1.00   0.00  0.00  0.00  0.75  0.00  0.00  0.25  0.00  0.00
  Con_152                 1.00   0.00  0.00  0.00  1.00  0.00  0.00  0.00  0.18  0.00
  Con_153                 1.00   0.00  0.00  0.00  1.00  0.00  0.00  0.00  0.06  0.00
  Con_154                 1.00   0.00  0.00  0.00  1.00  0.00  0.00  0.00  0.00  0.00
  Con_155                 1.00   0.00  0.00  0.00  1.00  0.00  0.00  0.00  0.00  0.00
  Con_156                 1.00   0.00  0.00  0.00  1.00  0.00  0.00  0.00  0.00  0.00
  eeneind_out             1.00   0.00  0.00  0.00  0.94  0.06  0.00  0.00  0.91  0.00
  
  
  *************************
  Conduit Surcharge Summary
  *************************
  
  ----------------------------------------------------------------------------
                                                           Hours        Hours 
                         --------- Hours Full --------   Above Full   Capacity
  Conduit                Both Ends  Upstream  Dnstream   Normal Flow   Limited
  ----------------------------------------------------------------------------
  Con_158                     0.01      0.01      0.88      0.01         0.01
  Con_160                     0.01      0.01     11.98      0.01         0.01
  Con_101                     0.01    217.85      0.01    283.18         0.01
  Con_102                     0.01      0.01      0.01    229.16         0.01
  Con_105                     0.01      0.01      0.01    205.22         0.01
  Con_106                     0.01      0.01      7.53      0.01         0.01
  Con_107                    78.97     78.97    118.42      0.01         0.01
  Con_108                   118.42    118.42    127.95      0.01         0.01
  Con_157                     0.88      0.88     11.95      0.01         0.01
  Con_111                    11.95     11.95     19.74      0.01         0.01
  Con_112                     0.01      0.01     20.37      0.01         0.01
  Con_113                    61.25     61.25     66.56      0.01         0.01
  Con_114                    66.56     66.56     69.70      0.01         0.01
  Con_115                    69.70     69.70    104.87      0.01         0.01
  Con_116                   104.87    104.87    130.83      0.01         0.01
  Con_117                   121.91    121.91    339.50      0.01         0.01
  Con_118                   127.95    127.95    137.10      0.01         0.01
  Con_119                   137.10    137.10    152.01      0.01         0.01
  Con_120                   152.01    152.01    166.41      0.01         0.01
  Con_121                   166.41    166.41    171.13      0.01         0.01
  Con_122                   171.13    171.13    176.52      0.01         0.01
  Con_123                   176.52    176.52    531.66      0.01         0.01
  Con_126                     0.01      0.01      0.01    361.36         0.01
  Con_128                     0.01      0.01      0.01      0.03         0.01
  Con_129                     0.01      0.01      0.01      0.02         0.01
  Con_130                     0.01      0.01      0.01      0.06         0.01
  Con_152                   135.54    135.54    148.12      0.94         0.01
  Con_153                   148.12    148.12    151.83      0.01         0.01
  Con_154                   151.83    151.83    153.57      0.01         0.01
  Con_155                   153.57    153.57    160.48      0.01         0.01
  Con_156                   160.48    160.48    171.13      0.01         0.01
  eeneind_out                 0.01      0.01   3518.42      0.01         0.01
  
  
  ***************
  Pumping Summary
  ***************
  
  ---------------------------------------------------------------------------------------------------------
                                                  Min       Avg       Max     Total     Power    % Time Off
                        Percent   Number of      Flow      Flow      Flow    Volume     Usage    Pump Curve
  Pump                 Utilized   Start-Ups       CMS       CMS       CMS  10^6 ltr     Kw-hr    Low   High
  ---------------------------------------------------------------------------------------------------------
  P_c_24_d_5             100.00           1      0.00      0.86     21.65 13636.947  14857.61    0.0  100.0
  P_c_23_d_7             100.00           1      0.00      0.00      0.03    20.687      0.02    0.0  100.0
  P_c_22_d_5              18.07          54      0.00      0.00      0.02     2.372      0.00    0.0  100.0
  P_c_21_d_7             100.00           1      0.00      0.00      0.03    20.011      0.02    0.0  100.0
  P_c_12_d_8             100.00           1      0.00      0.00      0.04    30.815      0.03    0.0   99.9
  P_c_20_d_13             20.41          48      0.00      0.00      0.09    14.866      0.03    0.0   98.9
  P_c_19_d_7             100.00           1      0.00      0.00      0.03    17.225      0.02    0.0  100.0
  P_c_10_d_10             23.42          40      0.00      0.00      0.04     8.430      0.01    0.0   96.7
  P_c_16_d_20             20.73          50      0.00      0.01      0.25    39.249      0.07    0.0   98.2
  P_c_15_d_24            100.00           1      0.00      0.00      0.32    68.250      0.10    0.0   99.5
  P_c_14_d_24             20.77          49      0.00      0.02      0.33    52.927      0.09    0.0   97.6
  P_c_129_d_5             13.45          53      0.00      0.00      0.16    10.217      0.02    0.0  100.0
  P_c_128_d_5            100.00           1      0.00      0.16      7.16  2581.483 107621.39    0.0  100.0
  P_c_1285_d_5           100.00           1      0.00      0.00      0.17    19.071      0.03    0.0  100.0
  P_c_127_d_5            100.00           1      0.00      0.05      5.68   833.788    289.72    0.0    4.5
  P_c_126_d_5            100.00           1      0.00      0.03      0.98   428.541      0.02    0.0   95.1
  P_c_125_d_5            100.00           1      0.00      0.00      0.42    16.252      0.00    0.0   99.9
  P_c_136_d_5            100.00           1      0.00      0.04      1.53   670.543  30179.41    0.0  100.0
  P_c_135_d_5            100.00           1      0.00      0.01      0.34    90.465      0.01    0.0  100.0
  P_c_131_d_5            100.00           1      0.00      0.01      0.35   107.899      0.01    0.0  100.0
  P_c_130_d_5            100.00           1      0.00      0.00      0.08    21.704      0.00    0.0   99.6
  P_c_134_d_5            100.00           1      0.00      0.00      0.08    20.521      0.00    0.0  100.0
  P_c_132_d_5            100.00           1      0.00      0.00      0.08    17.889      0.00    0.0  100.0
  Con_1119.1             100.00           1      0.00      0.04      0.19   662.482   2243.25    0.0    4.6
  P_riool_zuid_out       100.00           1      0.00      0.76      3.02 12012.664 290115.15    0.0    0.0
  P_eindhoven_out         99.81           1      0.00      0.86      3.89 13583.853  14565.04    0.0    0.0
  P_c_150_d_57           100.00           1      0.00      0.04      5.52   654.599   1334.95    0.0   99.1
  P_c_123_d_40           100.00           1      0.00      0.02      2.31   335.957   1164.65    0.0    2.3
  P_c_143_d_70           100.00           1      0.00      0.22      9.10  3427.109   4728.01    0.0   53.7
  P_c_147_d_4             13.15          51      0.00      0.00      0.13     8.145      0.16    0.0  100.0
  P_c_160_d_8            100.00           1      0.00      0.05      0.19   819.279      2.23    0.0  100.0
  P_c_145_d_4            100.00           1      0.00      0.00      0.06    12.622      0.06    0.0  100.0
  P_c_144_d_19           100.00           1      0.00      0.00      0.48    68.093      0.98    0.0  100.0
  P_c_142_d_35           100.00           1      0.00      0.02      1.55   268.075      3.34    0.0  100.0
  P_c_148_d_12           100.00           1      0.00      0.00      0.31    35.329      0.48    0.0  100.0
  P_c_149_d_17            15.95          52      0.00      0.01      0.37    33.181      0.72    0.0  100.0
  P_c_151_d_22           100.00           1      0.00      0.00      0.68    64.977      1.22    0.0  100.0
  P_c_161_d_32            16.50          52      0.00      0.05      1.27   122.293      2.64    0.0  100.0
  P_c_138_d_22           100.00           1      0.00      0.01      0.79   150.618      1.62    0.0  100.0
  P_c_139_d_8             13.33          52      0.00      0.00      0.13     8.677      0.00    0.0  100.0
  P_c_137_d_4            100.00           1      0.00      0.00      0.06    29.153      0.00    0.0   99.6
  P_c_122_d_29           100.00           1      0.00      0.01      1.67   167.497    636.32    0.0   21.2
  P_c_121_d_12           100.00           1      0.00      0.01      0.21   169.411    137.68    0.0   99.1
  P_c_120_d_8            100.00           1      0.00      0.00      0.10    27.006      0.00    0.0   99.7
  P_c_119_d_80           100.00           1      0.00      0.07      7.01  1168.507 9839227.38    0.0   99.9
  P_c_100_d_10           100.00           1      0.00      0.00      0.18    21.970      0.22    0.0   99.9
  P_c_118_d_13            11.27          52      0.00      0.01      0.30    19.304      0.37    0.0  100.0
  P_c_116_d_15           100.00           1      0.00      0.00      0.44    64.611    103.72    0.0   99.1
  P_c_114_d_10           100.00           1      0.00      0.00      0.16    21.663      0.00    0.0   99.8
  P_c_112_d_21           100.00           1      0.00      0.00      1.37    79.124     83.85    0.0    3.7
  P_c_107_d_36           100.00           1      0.00      0.15      1.62  2337.054   1454.86    0.0   99.1
  P_c_107_2_d_12         100.00           1      0.00      0.00      0.18    19.258      0.03    0.0  100.0
  P_c_106_d_13           100.00           1      0.00      0.01      0.24   208.579      0.05    0.0   99.9
  P_c_99_d_41            100.00           1      0.00      0.02      1.77   297.127    398.24    0.0    0.7
  P_c_103_d_8            100.00           1      0.00      0.00      0.11    16.385      0.02    0.0   99.7
  P_c_98_d_20            100.00           1      0.00      0.01      0.50    86.570    145.39    0.0   99.1
  P_aalst_1               12.91        2301      0.00      0.55      0.56  1138.397  56417.69    0.0   93.3
  P_aalst_2                9.15         690      0.00      0.56      0.56   812.794  39940.05    0.0   96.6
  P_aalst_3                8.41         364      0.00      0.49      0.49   654.895  32073.85    0.0   98.3
  P_aalst_4              100.00           1      0.00      0.39      0.49  6165.955 310149.34    0.0   99.1
  P_pipe_Geldrop         100.00           1      0.00      0.16      0.80  2563.122  14635.91    0.0    5.2
  P_gb127                100.00           1      0.00      0.05      0.32   786.988    173.80    0.0    4.5
  P_c_99                 100.00           1      0.00      0.02      0.56   297.129    578.98    0.0    0.8
  P_c_112                100.00           1      0.00      0.00      0.06    73.191    102.11    0.0    3.7
  P_c_119_1              100.00          11      0.00      0.03      0.24   420.342    767.44    0.0  100.0
  P_c_122                100.00           1      0.00      0.01      0.03   167.498    492.10    0.0   21.2
  P_c_123                100.00           1      0.00      0.02      0.28   335.959   1016.67    0.0    2.3
  P_c_119_2              100.00           7      0.00      0.02      0.34   325.705    771.87    0.0  100.0
  P_c_119_3              100.00           7      0.00      0.02      0.39   376.919   1146.00    0.0  100.0
  P_c_119_fr_040         100.00           1      0.00      0.03     10.00   470.387 3934035.35    0.0    0.1
  P_c_119_fr_028         100.00           1      0.00      0.02     10.00   330.171 2754129.79    0.0    0.1
  P_c_119_fr_032         100.00           1      0.00      0.02     10.00   376.910 3147344.40    0.0    0.1
  P_geldrop_split_1      100.00           1      0.00      0.08     10.00  1283.636   7596.68    0.0   53.5
  P_geldrop_split_2      100.00           1      0.00      0.08     10.00  1283.636   7425.90    0.0   10.4
  

  Analysis begun on:  Sun Jun  1 16:03:37 2025
  Analysis ended on:  Sun Jun  1 16:25:42 2025
  Total elapsed time: 00:22:05