
  EPA STORM WATER MANAGEMENT MODEL - VERSION 5.2 (Build 5.2.4)
  PYSWMM TOOLKIT API - VERSION v1.0 (2023-11-27)
  ------------------------------------------------------------

  WARNING 02: maximum depth increased for Node gb127
  
  ****************
  Analysis Options
  ****************
  Flow Units ............... CMS
  Process Models:
    Rainfall/Runoff ........ YES
    RDII ................... NO
    Snowmelt ............... NO
    Groundwater ............ NO
    Flow Routing ........... YES
    Ponding Allowed ........ NO
    Water Quality .......... NO
  Infiltration Method ...... HORTON
  Flow Routing Method ...... DYNWAVE
  Surcharge Method ......... EXTRAN
  Starting Date ............ 07/01/2024 00:00:00
  Ending Date .............. 07/10/2024 00:00:00
  Antecedent Dry Days ...... 0.0
  Report Time Step ......... 00:05:00
  Wet Time Step ............ 00:01:00
  Dry Time Step ............ 00:10:00
  Routing Time Step ........ 2.00 sec
  Variable Time Step ....... YES
  Maximum Trials ........... 12
  Number of Threads ........ 2
  Head Tolerance ........... 0.000200 m
  
  
  *********************
  Rainfall File Summary
  *********************
  Station    First        Last         Recording   Periods    Periods    Periods
  ID         Date         Date         Frequency  w/Precip    Missing    Malfunc.
  -------------------------------------------------------------------------------
  ES         01/01/2024   12/31/2024       5 min    105217          0          0

  GE         01/01/2024   12/31/2024       5 min    105217          0          0

  RZ1        01/01/2024   12/31/2024       5 min    105217          0          0

  RZ2        01/01/2024   12/31/2024       5 min    105217          0          0

  
  
  **************************        Volume         Depth
  Runoff Quantity Continuity     hectare-m            mm
  **************************     ---------       -------
  Total Precipitation ......       119.668        28.366
  Evaporation Loss .........        41.024         9.724
  Infiltration Loss ........         0.000         0.000
  Surface Runoff ...........        59.608        14.129
  Final Storage ............        19.055         4.517
  Continuity Error (%) .....        -0.016
  
  
  **************************        Volume        Volume
  Flow Routing Continuity        hectare-m      10^6 ltr
  **************************     ---------     ---------
  Dry Weather Inflow .......        63.951       639.520
  Wet Weather Inflow .......        59.594       595.943
  Groundwater Inflow .......         0.000         0.000
  RDII Inflow ..............         0.000         0.000
  External Inflow ..........        28.139       281.393
  External Outflow .........       335.151      3351.550
  Flooding Loss ............      1312.558     13125.721
  Evaporation Loss .........         0.003         0.032
  Exfiltration Loss ........         0.000         0.000
  Initial Stored Volume ....         0.804         8.043
  Final Stored Volume ......        48.882       488.821
  Continuity Error (%) .....     -1012.607
  
  
  *************************
  Highest Continuity Errors
  *************************
  Node J1 (-13338.13%)
  Node Nod_A*HLCMRZ1135 (35.10%)
  Node J119 (-9.61%)
  
  
  ***************************
  Time-Step Critical Elements
  ***************************
  None
  
  
  ********************************
  Highest Flow Instability Indexes
  ********************************
  Link Con_160 (8)
  Link Con_140 (7)
  Link Con_109 (7)
  Link Con_159 (7)
  Link Con_117 (6)
  
  
  *********************************
  Most Frequent Nonconverging Nodes
  *********************************
  Node cso_Geldrop (4.22%)
  Node cso_gb_136 (4.22%)
  Node cso_RZ (4.22%)
  Node cso_ES_1 (4.22%)
  Node cso_AALST (4.22%)
  
  
  *************************
  Routing Time Step Summary
  *************************
  Minimum Time Step           :     0.12 sec
  Average Time Step           :     2.00 sec
  Maximum Time Step           :     2.00 sec
  % of Time in Steady State   :     0.00
  Average Iterations per Step :     2.60
  % of Steps Not Converging   :     4.22
  Time Step Frequencies       :
      2.000 -  1.516 sec      :    99.95 %
      1.516 -  1.149 sec      :     0.01 %
      1.149 -  0.871 sec      :     0.01 %
      0.871 -  0.660 sec      :     0.01 %
      0.660 -  0.500 sec      :     0.01 %
  
  
  ***************************
  Subcatchment Runoff Summary
  ***************************
  
  ------------------------------------------------------------------------------------------------------------------------------
                            Total      Total      Total      Total     Imperv       Perv      Total       Total     Peak  Runoff
                           Precip      Runon       Evap      Infil     Runoff     Runoff     Runoff      Runoff   Runoff   Coeff
  Subcatchment                 mm         mm         mm         mm         mm         mm         mm    10^6 ltr      CMS
  ------------------------------------------------------------------------------------------------------------------------------
  c_24_catchment            25.14       0.00       9.76       0.00      10.07       0.00      10.07      193.26     9.40   0.401
  c_23_catchment            25.14       0.00       9.89       0.00       9.51       0.00       9.51        0.29     0.01   0.378
  c_22_catchment            25.14       0.00       9.89       0.00       9.51       0.00       9.51        0.15     0.01   0.378
  c_21_catchment            25.14       0.00       9.89       0.00       9.51       0.00       9.51        0.30     0.01   0.378
  c_12_catchment            25.14       0.00       9.89       0.00       9.51       0.00       9.51        0.35     0.02   0.378
  c_20_catchment            25.14       0.00       9.89       0.00       9.51       0.00       9.51        0.95     0.04   0.378
  c_19_catchment            25.14       0.00       9.89       0.00       9.51       0.00       9.51        0.32     0.02   0.378
  c_10_catchment            25.14       0.00      10.49       0.00       7.04       0.00       7.04        0.44     0.02   0.280
  c_16_catchment            25.14       0.00       9.89       0.00       9.51       0.00       9.51        2.51     0.12   0.378
  c_15_catchment            25.14       0.00       9.89       0.00       9.51       0.00       9.51        3.22     0.15   0.378
  c_14_catchment            25.14       0.00       9.89       0.00       9.51       0.00       9.51        3.39     0.16   0.378
  c_129_catchment           33.47       0.00       9.74       0.00      21.13       0.00      21.13        1.06     0.16   0.631
  c_128_catchment           33.47       0.00       9.98       0.00      20.41       0.00      20.41       52.06     5.85   0.610
  c_1285_catchment          33.47       0.00       9.82       0.00      20.91       0.00      20.91        1.21     0.17   0.625
  c_127_catchment           33.47       0.00       9.64       0.00      21.39       0.00      21.39       28.86     5.17   0.639
  c_126_catchment           33.47       0.00       9.72       0.00      21.20       0.00      21.20        3.35     0.54   0.633
  c_125_catchment           33.47       0.00       9.30       0.00      22.13       0.00      22.13        1.17     0.42   0.661
  c_124_catchment           33.47       0.00       8.98       0.00      22.74       0.00      22.74        0.23     0.22   0.679
  c_136_catchment           33.47       0.00      10.64       0.00      17.45       0.00      17.45        8.81     0.58   0.521
  c_135_catchment           33.47       0.00      10.49       0.00      18.25       0.00      18.25        4.01     0.28   0.545
  c_131_catchment           33.47       0.00      10.69       0.00      17.18       0.00      17.18        3.69     0.24   0.513
  c_130_catchment           33.47       0.00      10.25       0.00      19.37       0.00      19.37        0.76     0.06   0.579
  c_134_catchment           33.47       0.00      10.47       0.00      18.38       0.00      18.38        0.97     0.07   0.549
  c_132_catchment           33.47       0.00      10.25       0.00      19.37       0.00      19.37        0.76     0.06   0.579
  c_150_catchment           31.99       0.00       9.67       0.00      19.31       0.00      19.31       39.59     5.28   0.604
  c_123_catchment           31.99       0.00       9.79       0.00      18.75       0.00      18.75       19.03     2.02   0.586
  c_143_catchment           31.99       0.00      10.43       0.00      15.17       0.00      15.17       46.73     2.41   0.474
  c_147_catchment           31.99       0.00       9.59       0.00      19.60       0.00      19.60        0.84     0.13   0.613
  c_160_catchment           31.99       0.00       9.66       0.00      19.35       0.00      19.35        0.97     0.13   0.605
  c_145_catchment           31.99       0.00       9.33       0.00      20.42       0.00      20.42        0.20     0.06   0.638
  c_144_catchment           31.99       0.00       9.85       0.00      18.47       0.00      18.47        4.21     0.41   0.577
  c_142_catchment           31.99       0.00       9.89       0.00      18.31       0.00      18.31       14.07     1.29   0.573
  c_148_catchment           31.99       0.00       9.65       0.00      19.36       0.00      19.36        2.17     0.30   0.605
  c_149_catchment           31.99       0.00       9.89       0.00      18.30       0.00      18.30        3.35     0.31   0.572
  c_151_catchment           31.99       0.00       9.78       0.00      18.83       0.00      18.83        5.54     0.60   0.589
  c_161_catchment           31.99       0.00       9.95       0.00      18.00       0.00      18.00       12.24     1.03   0.563
  c_138_catchment           31.99       0.00       9.83       0.00      18.60       0.00      18.60        5.37     0.54   0.581
  c_139_catchment           31.99       0.00       9.62       0.00      19.49       0.00      19.49        0.90     0.13   0.609
  c_137_catchment           31.99       0.00       9.33       0.00      20.42       0.00      20.42        0.20     0.06   0.638
  c_122_catchment           29.27       0.00       8.66       0.00      18.37       0.00      18.37        9.59     1.66   0.628
  c_121_catchment           29.27       0.00       9.58       0.00      14.73       0.00      14.73        1.52     0.08   0.503
  c_120_catchment           29.27       0.00       9.03       0.00      17.32       0.00      17.32        0.85     0.08   0.592
  c_119_catchment           29.27       0.00       9.17       0.00      16.78       0.00      16.78       65.96     4.77   0.573
  c_100_catchment           29.27       0.00       8.77       0.00      18.12       0.00      18.12        1.21     0.18   0.619
  c_118_catchment           29.27       0.00       8.80       0.00      18.06       0.00      18.06        2.04     0.28   0.617
  c_116_catchment           29.27       0.00       8.98       0.00      17.52       0.00      17.52        2.26     0.23   0.599
  c_114_catchment           29.27       0.00       8.83       0.00      17.98       0.00      17.98        1.10     0.14   0.614
  c_112_catchment           29.27       0.00       8.41       0.00      18.82       0.00      18.82        5.36     1.36   0.643
  c_107_catchment           29.27       0.00       9.25       0.00      16.42       0.00      16.42       12.67     0.80   0.561
  c_107_2_catchment         29.27       0.00       9.06       0.00      17.24       0.00      17.24        1.55     0.14   0.589
  c_106_catchment           29.27       0.00       9.05       0.00      17.28       0.00      17.28        1.95     0.17   0.590
  c_99_catchment            29.27       0.00       9.19       0.00      16.67       0.00      16.67       17.28     1.20   0.569
  c_103_catchment           29.27       0.00       8.75       0.00      18.18       0.00      18.18        0.69     0.10   0.621
  c_98_catchment            29.27       0.00       9.07       0.00      17.19       0.00      17.19        4.50     0.39   0.587
  
  
  ******************
  Node Depth Summary
  ******************
  
  ---------------------------------------------------------------------------------
                                 Average  Maximum  Maximum  Time of Max    Reported
                                   Depth    Depth      HGL   Occurrence   Max Depth
  Node                 Type       Meters   Meters   Meters  days hr:min      Meters
  ---------------------------------------------------------------------------------
  Nod_100              JUNCTION     2.97     2.97    17.45     0  00:00        2.97
  Nod_890              JUNCTION     2.93     3.00    15.93     0  00:45        2.97
  Nod_891              JUNCTION     2.86     2.87    15.87     0  00:49        2.87
  Nod_892              JUNCTION     2.80     3.04    16.10     0  00:49        3.01
  Nod_A*HLCMRZ1135     JUNCTION     3.02     3.35    16.19     0  00:49        3.31
  Nod_103              JUNCTION     1.73     2.00    15.97     0  01:27        2.00
  Nod_104              JUNCTION     1.40     2.00    15.78     0  01:27        1.89
  Nod_105              JUNCTION     1.41     2.00    15.76     0  01:27        1.90
  Nod_106              JUNCTION     1.45     2.00    15.57     0  01:26        2.00
  Nod_107              JUNCTION     1.42     2.00    15.55     0  01:26        2.00
  Nod_108              JUNCTION     3.27     9.80    21.00     0  01:24        4.58
  Nod_109              JUNCTION     2.94    10.43    21.95     0  01:20        4.28
  Nod_110              JUNCTION     3.02     6.65    20.19     0  00:49        3.08
  Nod_111              JUNCTION     2.94     6.34    19.81     0  00:49        3.00
  Nod_112              JUNCTION     3.03     3.96    16.80     0  00:49        3.10
  Nod_113              JUNCTION     3.05     4.09    16.89     0  00:52        3.14
  Nod_114              JUNCTION     3.02     5.54    18.31     0  00:52        3.19
  Nod_115              JUNCTION     3.06     5.86    18.56     0  00:52        3.24
  Nod_116              JUNCTION     3.07     5.91    18.58     0  00:52        3.26
  Nod_117              JUNCTION     3.25     7.46    19.73     0  00:50        3.61
  Nod_118              JUNCTION     3.42     9.09    21.00     0  00:52        3.96
  Nod_119              JUNCTION     3.02     7.69    19.13     0  01:20        4.36
  Nod_120              JUNCTION     3.09     8.17    19.54     0  01:20        4.43
  Nod_121              JUNCTION     3.20     6.80    18.06     0  01:20        4.55
  Nod_122              JUNCTION     3.31     5.60    16.74     0  01:27        4.67
  Nod_123              JUNCTION     3.36     5.65    16.74     0  01:27        4.72
  Nod_124              JUNCTION     3.39     5.78    16.79     0  01:27        4.86
  Nod_126              JUNCTION     2.82     2.83    20.00     0  00:30        2.83
  Nod_127              JUNCTION     2.07    34.96    52.97     0  00:37       12.79
  Nod_128              JUNCTION     2.28     3.28    21.00     0  00:35        3.28
  Nod_129              JUNCTION     4.83     5.36    21.00     0  00:12        5.03
  Nod_130              JUNCTION     5.45     5.94    21.00     0  00:12        5.67
  Nod_131              JUNCTION     5.30     6.46    21.00     0  00:12        5.50
  Nod_132              JUNCTION     4.80     6.38    20.71     0  00:19        4.99
  Nod_133              JUNCTION     4.72     6.34    20.62     0  00:19        4.91
  Nod_134              JUNCTION     4.30     5.88    19.98     0  00:49        4.46
  Nod_135              JUNCTION     4.18     5.82    19.87     0  00:19        4.33
  Nod_136              JUNCTION     3.90     6.64    20.57     0  00:19        4.03
  Nod_222              JUNCTION     4.09     9.80    21.00     0  00:52        4.67
  Nod_233              JUNCTION     3.34     5.10    16.62     0  01:27        4.32
  Nod_244              JUNCTION     3.33     5.21    16.65     0  01:27        4.39
  Nod_266              JUNCTION     3.30     5.30    16.67     0  01:27        4.46
  Nod_277              JUNCTION     3.31     5.44    16.70     0  01:27        4.56
  J1                   JUNCTION     0.00     0.00    15.06     0  00:00        0.00
  J119                 JUNCTION   342.13  14475.33  14475.33     8  18:30    14475.33
  cso_Geldrop          OUTFALL      0.00     0.00     4.62     0  00:00        0.00
  cso_gb_136           OUTFALL      0.00     0.00     1.00     0  00:00        0.00
  cso_RZ               OUTFALL      0.00     0.00    16.07     0  00:00        0.00
  cso_ES_1             OUTFALL      0.00     0.00     0.00     0  00:00        0.00
  cso_AALST            OUTFALL      0.00     0.00     0.00     0  00:00        0.00
  out_ES               OUTFALL      0.00     0.00     0.00     0  00:00        0.00
  out_RZ               OUTFALL      0.00     0.00     0.00     0  00:00        0.00
  cso_gb127            OUTFALL      0.00     0.00     0.00     0  00:00        0.00
  cso_c_122            OUTFALL      0.00     0.00     0.00     0  00:00        0.00
  cso_c_119_1          OUTFALL      0.00     0.00     0.00     0  00:00        0.00
  cso_c_112            OUTFALL      0.00     0.00     0.00     0  00:00        0.00
  cso_c_99             OUTFALL      0.00     0.00     0.00     0  00:00        0.00
  cso_c_123            OUTFALL      0.00     0.00     0.00     0  00:00        0.00
  cso_c_119_2          OUTFALL      0.00     0.00     0.00     0  00:00        0.00
  cso_c_119_3          OUTFALL      0.00     0.00     0.00     0  00:00        0.00
  c_24_vr_storage_5    STORAGE      0.00     0.00     0.00     8  19:35        0.00
  c_23_vr_storage_7    STORAGE      0.00     0.00     0.00     8  19:35        0.00
  c_22_vr_storage_5    STORAGE      0.00     0.00     0.00     8  19:35        0.00
  c_21_vr_storage_7    STORAGE      0.00     0.00     0.00     8  19:35        0.00
  c_12_vr_storage_8    STORAGE      0.00     0.00     0.00     8  19:40        0.00
  c_20_vr_storage_13   STORAGE      0.00     0.00     0.00     8  19:41        0.00
  c_19_vr_storage_7    STORAGE      0.00     0.00     0.00     8  19:35        0.00
  c_10_vr_storage_10   STORAGE      0.00     0.00     0.00     8  19:40        0.00
  c_16_vr_storage_20   STORAGE      0.00     0.00     0.00     8  19:45        0.00
  c_15_vr_storage_24   STORAGE      0.00     0.00     0.00     8  19:49        0.00
  c_14_vr_storage_24   STORAGE      0.00     0.00     0.00     8  19:49        0.00
  pipe_ES              STORAGE      0.25     2.51     2.51     9  00:00        2.51
  pipe_Geldrop         STORAGE      0.08     2.86    17.92     8  19:45        2.86
  gb_136               STORAGE      0.02     0.90    17.35     8  20:05        0.90
  c_129_vr_storage_5   STORAGE      0.00     0.00     0.00     8  17:15        0.00
  c_128_vr_storage_5   STORAGE      0.00     0.00     0.00     8  17:15        0.00
  c_1285_vr_storage_5  STORAGE      0.00     0.00     0.00     8  17:15        0.00
  c_127_vr_storage_5   STORAGE      0.00     0.00     0.00     8  17:17        0.00
  c_126_vr_storage_5   STORAGE      0.00     0.00     0.00     8  17:15        0.00
  c_125_vr_storage_5   STORAGE      0.00     0.00     0.00     8  17:10        0.00
  c_124_storage        STORAGE      0.03     0.07    14.29     9  00:00        0.07
  c_136_vr_storage_5   STORAGE      0.00     0.00     0.00     8  18:20        0.00
  c_135_vr_storage_5   STORAGE      0.00     0.00     0.00     8  18:15        0.00
  c_131_vr_storage_5   STORAGE      0.00     0.00     0.00     8  18:16        0.00
  c_130_vr_storage_5   STORAGE      0.00     0.00     0.00     8  17:15        0.00
  c_134_vr_storage_5   STORAGE      0.00     0.00     0.00     8  18:15        0.00
  c_132_vr_storage_5   STORAGE      0.00     0.00     0.00     8  17:15        0.00
  Aalst_gemaal         STORAGE      0.14     2.29     2.29     9  00:00        2.29
  pre_ontvangstkelder  STORAGE     24.78    27.32    16.82     0  01:27       26.43
  c_150_vr_storage_57  STORAGE      0.00     0.01     0.01     8  17:55        0.01
  c_123_vr_storage_40  STORAGE      0.00     0.00     0.00     8  17:40        0.00
  c_143_vr_storage_70  STORAGE      0.00     0.02     0.02     8  18:40        0.02
  c_147_vr_storage_4   STORAGE      0.00     0.00     0.00     8  17:05        0.00
  c_160_vr_storage_8   STORAGE      0.00     0.00     0.00     8  17:10        0.00
  c_145_vr_storage_4   STORAGE      0.00     0.00     0.00     8  17:05        0.00
  c_144_vr_storage_19  STORAGE      0.00     0.00     0.00     8  17:20        0.00
  c_142_vr_storage_35  STORAGE      0.00     0.00     0.00     8  17:35        0.00
  c_148_vr_storage_12  STORAGE      0.00     0.00     0.00     8  17:10        0.00
  c_149_vr_storage_17  STORAGE      0.00     0.00     0.00     8  17:15        0.00
  c_151_vr_storage_22  STORAGE      0.00     0.00     0.00     8  17:20        0.00
  c_161_vr_storage_32  STORAGE      0.00     0.00     0.00     8  17:30        0.00
  c_138_vr_storage_22  STORAGE      0.00     0.00     0.00     8  17:20        0.00
  c_139_vr_storage_8   STORAGE      0.00     0.00     0.00     8  17:10        0.00
  c_137_vr_storage_4   STORAGE      0.00     0.00     0.00     8  17:05        0.00
  c_122_vr_storage_29  STORAGE      0.00     0.00     0.00     8  17:20        0.00
  c_121_vr_storage_12  STORAGE      0.00     0.00     0.00     8  17:15        0.00
  c_120_vr_storage_8   STORAGE      0.00     0.00     0.00     8  17:05        0.00
  c_119_vr_storage_80  STORAGE      0.00     0.02     0.02     8  18:10        0.02
  c_100_vr_storage_10  STORAGE      0.00     0.00     0.00     8  17:05        0.00
  c_118_vr_storage_13  STORAGE      0.00     0.00     0.00     8  17:07        0.00
  c_116_vr_storage_15  STORAGE      0.00     0.00     0.00     8  17:15        0.00
  c_114_vr_storage_10  STORAGE      0.00     0.00     0.00     8  17:05        0.00
  c_112_vr_storage_21  STORAGE      0.00     0.00     0.00     8  17:10        0.00
  c_107_vr_storage_36  STORAGE      0.00     0.00     0.00     8  17:35        0.00
  c_107_2_vr_storage_12 STORAGE      0.00     0.00     0.00     8  17:05        0.00
  c_106_vr_storage_13  STORAGE      0.00     0.00     0.00     8  17:10        0.00
  c_99_vr_storage_41   STORAGE      0.00     0.00     0.00     8  17:34        0.00
  c_103_vr_storage_8   STORAGE      0.00     0.00     0.00     8  17:05        0.00
  c_98_vr_storage_20   STORAGE      0.00     0.00     0.00     8  17:15        0.00
  gb127                STORAGE      0.03     0.94     0.94     8  18:20        0.94
  c_123                STORAGE      0.22     9.77     9.77     8  21:55        9.77
  c_122                STORAGE      0.32     6.36     6.36     8  21:59        6.36
  c_112                STORAGE      0.07     1.72     1.72     8  19:30        1.72
  c_99                 STORAGE      0.07     3.64     3.64     8  20:45        3.64
  c_119_1              STORAGE      0.23     5.05     5.05     8  20:35        5.05
  c_119_2              STORAGE      0.16     7.02     7.02     8  21:30        7.02
  c_119_3              STORAGE      0.18     8.46     8.46     8  22:20        8.46
  
  
  *******************
  Node Inflow Summary
  *******************
  
  -------------------------------------------------------------------------------------------------
                                  Maximum  Maximum                  Lateral       Total        Flow
                                  Lateral    Total  Time of Max      Inflow      Inflow     Balance
                                   Inflow   Inflow   Occurrence      Volume      Volume       Error
  Node                 Type           CMS      CMS  days hr:min    10^6 ltr    10^6 ltr     Percent
  -------------------------------------------------------------------------------------------------
  Nod_100              JUNCTION     0.000   10.191     8  17:10           0     7.8e+03       0.000
  Nod_890              JUNCTION     0.000    8.381     0  01:30           0    4.44e+03       0.028
  Nod_891              JUNCTION     0.000    8.387     0  01:30           0    4.44e+03       0.021
  Nod_892              JUNCTION     0.000    2.079     0  00:49           0        1.73      47.447
  Nod_A*HLCMRZ1135     JUNCTION     0.000    2.081     0  00:49           0       0.673      54.079
  Nod_103              JUNCTION     0.000    0.936     0  00:17           0         595       0.083
  Nod_104              JUNCTION     0.000    1.138     0  01:27           0         586       0.040
  Nod_105              JUNCTION     0.000    0.818     0  00:35           0         523       0.035
  Nod_106              JUNCTION     0.000    0.805     0  00:36           0         523       0.000
  Nod_107              JUNCTION     0.000    1.201     0  01:29           0         550       0.188
  Nod_108              JUNCTION     0.000    4.208     0  01:23           0         515       0.289
  Nod_109              JUNCTION     0.000    3.635     0  01:20           0         515       0.169
  Nod_110              JUNCTION     0.000    9.605     0  00:42           0    6.76e+03       0.019
  Nod_111              JUNCTION     0.000    9.561     0  00:41           0    6.76e+03       0.037
  Nod_112              JUNCTION     0.000    9.702     0  00:47           0    6.76e+03       0.022
  Nod_113              JUNCTION     0.000    8.853     0  00:46           0    2.32e+03       0.080
  Nod_114              JUNCTION     0.000    7.635     0  00:44           0    2.32e+03       0.068
  Nod_115              JUNCTION     0.000    7.094     0  00:50           0    2.32e+03       0.011
  Nod_116              JUNCTION     0.000    7.094     0  00:50           0    2.32e+03       0.050
  Nod_117              JUNCTION     0.000    7.095     0  00:50           0    2.32e+03       0.088
  Nod_118              JUNCTION     0.000    7.012     0  00:50           0    2.31e+03       0.052
  Nod_119              JUNCTION     0.000    4.056     0  01:19           0         516       0.077
  Nod_120              JUNCTION     0.000    4.093     0  01:19           0         516       0.102
  Nod_121              JUNCTION     0.000    4.045     0  01:19           0         516       0.134
  Nod_122              JUNCTION     0.000    4.067     0  01:19           0         516       0.100
  Nod_123              JUNCTION     0.000    5.226     0  22:03           0    2.79e+03       0.028
  Nod_124              JUNCTION     0.000    7.646     0  01:06           0    2.76e+03       0.016
  Nod_126              JUNCTION     0.000    3.444     0  01:27           0    1.41e+03       0.130
  Nod_127              JUNCTION     0.000    3.111     0  00:36           0         410       0.540
  Nod_128              JUNCTION     0.000    3.470     0  00:37           0         409       0.214
  Nod_129              JUNCTION     0.000    3.395     0  00:04           0       1e+03       0.198
  Nod_130              JUNCTION     0.000   10.805     0  00:00           0    7.78e+03       0.006
  Nod_131              JUNCTION     0.000   10.511     0  00:12           0    6.77e+03       0.017
  Nod_132              JUNCTION     0.000   10.581     0  00:12           0    6.77e+03       0.016
  Nod_133              JUNCTION     0.000   10.272     0  00:14           0    6.77e+03       0.014
  Nod_134              JUNCTION     0.000   10.412     0  00:14           0    6.77e+03       0.014
  Nod_135              JUNCTION     0.000    9.605     0  00:42           0    6.77e+03       0.011
  Nod_136              JUNCTION     0.000    9.605     0  00:42           0    6.77e+03       0.038
  Nod_222              JUNCTION     0.000    6.324     0  00:49           0    2.31e+03       0.051
  Nod_233              JUNCTION     0.000    6.058     0  00:52           0    2.31e+03       0.034
  Nod_244              JUNCTION     0.000    4.988     0  01:00           0    2.31e+03       0.017
  Nod_266              JUNCTION     0.000    4.888     0  01:00           0    2.31e+03       0.022
  Nod_277              JUNCTION     0.000    4.860     0  01:08           0    2.31e+03       0.029
  J1                   JUNCTION     0.000    0.800     8  17:10           0         116     -99.256
  J119                 JUNCTION     0.000    4.829     8  18:25           0        92.3      -8.770
  cso_Geldrop          OUTFALL      0.000    2.548     8  19:45           0        10.4       0.000
  cso_gb_136           OUTFALL      0.000    0.744     8  20:05           0        4.08       0.000
  cso_RZ               OUTFALL      0.000    0.827     0  00:49           0      0.0151       0.000
  cso_ES_1             OUTFALL      0.000    0.119     9  00:00           0      0.0127       0.000
  cso_AALST            OUTFALL      0.000    0.000     0  00:00           0           0       0.000 ltr
  out_ES               OUTFALL      0.000    3.888     3  03:00           0         555       0.000
  out_RZ               OUTFALL      0.000    3.888     0  22:00           0    2.76e+03       0.000
  cso_gb127            OUTFALL      0.000    2.618     8  18:20           0        14.8       0.000
  cso_c_122            OUTFALL      0.000    0.000     0  00:00           0           0       0.000 ltr
  cso_c_119_1          OUTFALL      0.000    1.361     8  20:35           0        9.61       0.000
  cso_c_112            OUTFALL      0.000    0.323     8  19:30           0        1.32       0.000
  cso_c_99             OUTFALL      0.000    0.000     0  00:00           0           0       0.000 ltr
  cso_c_123            OUTFALL      0.000    0.000     0  00:00           0           0       0.000 ltr
  cso_c_119_2          OUTFALL      0.000    0.275     8  21:30           0       0.409       0.000
  cso_c_119_3          OUTFALL      0.000    0.000     0  00:00           0           0       0.000 ltr
  c_24_vr_storage_5    STORAGE     10.165   10.648     8  19:35         705         721      -0.000
  c_23_vr_storage_7    STORAGE      0.015    0.015     8  19:35        1.08        1.08      -0.000
  c_22_vr_storage_5    STORAGE      0.007    0.007     8  19:35       0.152       0.152       0.000
  c_21_vr_storage_7    STORAGE      0.016    0.016     8  19:35        1.05        1.05      -0.000
  c_12_vr_storage_8    STORAGE      0.019    0.019     8  19:35        1.59        1.59      -0.000
  c_20_vr_storage_13   STORAGE      0.045    0.045     8  19:35       0.951       0.951       0.000
  c_19_vr_storage_7    STORAGE      0.016    0.016     8  19:35       0.919       0.919      -0.000
  c_10_vr_storage_10   STORAGE      0.018    0.018     8  19:35       0.437       0.437       0.000
  c_16_vr_storage_20   STORAGE      0.118    0.118     8  19:35        2.51        2.51       0.000
  c_15_vr_storage_24   STORAGE      0.153    0.153     8  19:35         4.1         4.1       0.000
  c_14_vr_storage_24   STORAGE      0.159    0.159     8  19:35        3.38        3.38       0.000
  pipe_ES              STORAGE      0.000   10.632     8  19:35           0         720       0.003
  pipe_Geldrop         STORAGE      0.000    6.534     8  17:15           0         153       0.002
  gb_136               STORAGE      0.000    1.283     8  18:20           0          42       0.002
  c_129_vr_storage_5   STORAGE      0.163    0.163     8  17:15        1.06        1.06      -0.000
  c_128_vr_storage_5   STORAGE      5.933    6.580     8  17:15         114         153       0.000
  c_1285_vr_storage_5  STORAGE      0.168    0.168     8  17:15        1.57        1.57      -0.000
  c_127_vr_storage_5   STORAGE      5.178    6.159     8  17:15        35.1        58.4       0.000
  c_126_vr_storage_5   STORAGE      0.561    0.981     8  17:15        21.9        23.3      -0.000
  c_125_vr_storage_5   STORAGE      0.424    0.424     8  17:10        1.41        1.41      -0.001
  c_124_storage        STORAGE      0.224    0.314     8  17:10         3.5        66.2       0.011
  c_136_vr_storage_5   STORAGE      0.600    1.311     8  18:15        25.4          42       0.000
  c_135_vr_storage_5   STORAGE      0.285    0.285     8  18:15        6.41        6.41      -0.000
  c_131_vr_storage_5   STORAGE      0.240    0.300     8  18:15        5.97        7.42       0.000
  c_130_vr_storage_5   STORAGE      0.063    0.063     8  17:15        1.45        1.45      -0.000
  c_134_vr_storage_5   STORAGE      0.070    0.070     8  18:15        1.49        1.49      -0.000
  c_132_vr_storage_5   STORAGE      0.062    0.062     8  17:15        1.26        1.26      -0.000
  Aalst_gemaal         STORAGE      0.000   11.562     8  18:45           0         532      -0.412
  pre_ontvangstkelder  STORAGE      0.000    5.223     0  22:03           0    2.76e+03       0.085
  c_150_vr_storage_57  STORAGE      5.297    5.297     8  17:05        52.8        52.8       0.000
  c_123_vr_storage_40  STORAGE      2.030    2.030     8  17:05        26.3        26.3       0.000
  c_143_vr_storage_70  STORAGE      2.497    6.301     8  17:35         112         215       0.000
  c_147_vr_storage_4   STORAGE      0.130    0.130     8  17:05       0.843       0.843      -0.000
  c_160_vr_storage_8   STORAGE      0.188    0.188     8  17:05        40.6        40.6      -0.000
  c_145_vr_storage_4   STORAGE      0.059    0.059     8  17:05       0.725       0.725      -0.000
  c_144_vr_storage_19  STORAGE      0.409    0.409     8  17:05        5.51        5.51       0.000
  c_142_vr_storage_35  STORAGE      1.301    1.301     8  17:05        20.4        20.4       0.000
  c_148_vr_storage_12  STORAGE      0.297    0.297     8  17:05        2.87        2.87      -0.000
  c_149_vr_storage_17  STORAGE      0.306    0.306     8  17:05        3.35        3.35       0.000
  c_151_vr_storage_22  STORAGE      0.605    0.605     8  17:05        6.06        6.06       0.000
  c_161_vr_storage_32  STORAGE      1.026    1.026     8  17:05        12.2        12.2       0.000
  c_138_vr_storage_22  STORAGE      0.545    0.683     8  17:10        8.31        10.7       0.000
  c_139_vr_storage_8   STORAGE      0.131    0.131     8  17:05       0.897       0.897      -0.000
  c_137_vr_storage_4   STORAGE      0.060    0.060     8  17:05        1.53        1.53      -0.000
  c_122_vr_storage_29  STORAGE      1.667    1.667     8  17:00        13.4        13.4      -0.000
  c_121_vr_storage_12  STORAGE      0.086    0.149     8  17:05        7.72         9.5       0.000
  c_120_vr_storage_8   STORAGE      0.078    0.078     8  17:00        1.77        1.77      -0.000
  c_119_vr_storage_80  STORAGE      4.800    5.019     8  17:05          90        93.8       0.000
  c_100_vr_storage_10  STORAGE      0.176    0.176     8  17:00        1.73        1.73      -0.000
  c_118_vr_storage_13  STORAGE      0.284    0.284     8  17:00        2.04        2.04      -0.000
  c_116_vr_storage_15  STORAGE      0.229    0.357     8  17:05        3.31        4.96      -0.000
  c_114_vr_storage_10  STORAGE      0.145    0.145     8  17:00        1.65        1.65      -0.000
  c_112_vr_storage_21  STORAGE      1.366    1.366     8  17:00        6.76        6.76      -0.001
  c_107_vr_storage_36  STORAGE      0.931    1.197     8  17:10         110         123       0.000
  c_107_2_vr_storage_12 STORAGE      0.136    0.136     8  17:00        1.77        1.77      -0.000
  c_106_vr_storage_13  STORAGE      0.186    0.186     8  17:00        11.2        11.2      -0.000
  c_99_vr_storage_41   STORAGE      1.205    1.292     8  17:00        22.9          24       0.000
  c_103_vr_storage_8   STORAGE      0.105    0.105     8  17:00        1.17        1.17      -0.000
  c_98_vr_storage_20   STORAGE      0.388    0.388     8  17:00        6.63        6.63      -0.000
  gb127                STORAGE      0.000    5.682     8  17:15           0        58.4       0.001
  c_123                STORAGE      0.000    2.018     8  17:40           0        26.2       0.004
  c_122                STORAGE      0.000    1.666     8  17:25           0        13.4       0.005
  c_112                STORAGE      0.000    1.366     8  17:15           0        6.76       0.001
  c_99                 STORAGE      0.000    1.249     8  17:40           0        23.9      -0.002
  c_119_1              STORAGE      0.000   10.000     0  00:00           0        39.9       0.000
  c_119_2              STORAGE      0.000   10.000     0  00:00           0        28.8       0.001
  c_119_3              STORAGE      0.000   10.000     0  00:00           0        32.5       0.001
  
  
  **********************
  Node Surcharge Summary
  **********************
  
  Surcharging occurs when water rises above the top of the highest conduit.
  ---------------------------------------------------------------------
                                               Max. Height   Min. Depth
                                   Hours       Above Crown    Below Rim
  Node                 Type      Surcharged         Meters       Meters
  ---------------------------------------------------------------------
  Nod_100              JUNCTION      216.00          1.750        0.000
  Nod_890              JUNCTION      215.25          0.900        0.000
  Nod_891              JUNCTION      215.25          0.770        0.000
  Nod_892              JUNCTION      215.22          0.940        0.960
  Nod_103              JUNCTION      214.55          0.580        0.000
  Nod_104              JUNCTION      214.39          0.780        0.000
  Nod_105              JUNCTION      214.43          0.780        0.000
  Nod_106              JUNCTION      214.52          0.780        0.000
  Nod_107              JUNCTION      214.41          0.780        0.000
  Nod_108              JUNCTION      214.47          6.930        0.000
  Nod_109              JUNCTION      214.65          8.627       18.053
  Nod_110              JUNCTION      215.19          4.390        0.810
  Nod_111              JUNCTION      215.21          4.236        1.194
  Nod_112              JUNCTION      215.19          1.533        4.197
  Nod_113              JUNCTION      215.20          1.668        4.112
  Nod_114              JUNCTION      215.22          3.436        2.694
  Nod_115              JUNCTION      215.27          4.062        2.438
  Nod_116              JUNCTION      215.26          4.107        2.423
  Nod_117              JUNCTION      215.16          5.659        1.271
  Nod_118              JUNCTION      215.13          7.200        0.000
  Nod_119              JUNCTION      214.66          5.889       20.871
  Nod_120              JUNCTION      214.67          6.366       20.464
  Nod_121              JUNCTION      214.69          5.002       21.938
  Nod_122              JUNCTION      214.71          3.796       23.264
  Nod_123              JUNCTION      214.72          3.852       23.258
  Nod_124              JUNCTION      214.73          3.981       23.209
  Nod_126              JUNCTION      215.50          1.330        0.000
  Nod_127              JUNCTION      214.65         33.464        0.000
  Nod_128              JUNCTION      215.40          1.780        0.000
  Nod_129              JUNCTION      215.80          3.860        0.000
  Nod_130              JUNCTION      215.82          3.940        0.000
  Nod_131              JUNCTION      215.79          4.360        0.000
  Nod_132              JUNCTION      215.77          4.276        0.294
  Nod_133              JUNCTION      215.76          4.242        0.378
  Nod_134              JUNCTION      215.71          3.778        1.022
  Nod_135              JUNCTION      215.70          3.722        1.128
  Nod_136              JUNCTION      215.69          4.535        0.435
  Nod_222              JUNCTION      215.14          7.350        0.000
  Nod_233              JUNCTION      215.00          3.303       23.377
  Nod_244              JUNCTION      214.77          3.407       23.353
  Nod_266              JUNCTION      214.72          3.500       23.330
  Nod_277              JUNCTION      214.71          3.644       23.296
  J1                   JUNCTION      216.00          0.000        4.000
  J119                 JUNCTION      216.00      14475.326    99985523.674
  
  
  *********************
  Node Flooding Summary
  *********************
  
  Flooding refers to all water that overflows a node, whether it ponds or not.
  --------------------------------------------------------------------------
                                                             Total   Maximum
                                 Maximum   Time of Max       Flood    Ponded
                        Hours       Rate    Occurrence      Volume     Depth
  Node                 Flooded       CMS   days hr:min    10^6 ltr    Meters
  --------------------------------------------------------------------------
  Nod_100               216.00     9.992      0  00:00    7209.461     0.000
  Nod_890                 0.04     1.063      0  00:45       0.026     0.000
  Nod_891               215.18     8.387      0  01:30    4433.921     0.000
  Nod_103                20.59     0.220      0  01:29       8.716     0.000
  Nod_104                 0.01     0.814      0  01:27       0.006     0.000
  Nod_105                 0.04     0.622      0  01:27       0.048     0.000
  Nod_106                20.57     0.713      0  01:26       2.450     0.000
  Nod_107                20.60     1.201      0  01:29      64.511     0.000
  Nod_108                 0.01     3.570      0  01:24       0.034     0.000
  Nod_118                 0.01     0.123      0  00:52       0.000     0.000
  Nod_126               215.38     3.444      0  01:27    1406.248     0.000
  Nod_128                 0.21     3.395      0  00:37       0.227     0.000
  Nod_129                 0.01     2.210      0  00:12       0.008     0.000
  Nod_130                 0.01     0.504      0  00:12       0.010     0.000
  Nod_131                 0.01     1.853      0  00:12       0.004     0.000
  Nod_222                 0.01     1.280      0  00:52       0.003     0.000
  
  
  **********************
  Storage Volume Summary
  **********************
  
  ------------------------------------------------------------------------------------------------
                         Average    Avg   Evap  Exfil     Maximum    Max    Time of Max    Maximum
                          Volume   Pcnt   Pcnt   Pcnt      Volume   Pcnt     Occurrence    Outflow
  Storage Unit           1000 m³   Full   Loss   Loss     1000 m³   Full    days hr:min        CMS
  ------------------------------------------------------------------------------------------------
  c_24_vr_storage_5        0.169    0.0    0.0    0.0       1.646    0.0       8  19:35     10.632
  c_23_vr_storage_7        0.000    0.0    0.0    0.0       0.002    0.0       8  19:35      0.015
  c_22_vr_storage_5        0.000    0.0    0.0    0.0       0.001    0.0       8  19:35      0.007
  c_21_vr_storage_7        0.000    0.0    0.0    0.0       0.002    0.0       8  19:35      0.016
  c_12_vr_storage_8        0.001    0.0    0.0    0.0       0.009    0.0       8  19:40      0.019
  c_20_vr_storage_13       0.001    0.0    0.0    0.0       0.033    0.0       8  19:41      0.045
  c_19_vr_storage_7        0.000    0.0    0.0    0.0       0.002    0.0       8  19:35      0.016
  c_10_vr_storage_10       0.000    0.0    0.0    0.0       0.008    0.0       8  19:40      0.018
  c_16_vr_storage_20       0.003    0.0    0.0    0.0       0.121    0.0       8  19:45      0.118
  c_15_vr_storage_24       0.007    0.0    0.0    0.0       0.201    0.0       8  19:49      0.153
  c_14_vr_storage_24       0.006    0.0    0.0    0.0       0.209    0.0       8  19:49      0.159
  pipe_ES                 16.671    8.4    0.0    0.0     165.660   83.7       9  00:00      3.888
  pipe_Geldrop             0.760    1.5    0.0    0.0      28.567   57.1       8  19:45      3.348
  gb_136                   0.222    1.5    0.0    0.0       8.970   59.8       8  20:05      0.935
  c_129_vr_storage_5       0.000    0.0    0.0    0.0       0.020    0.0       8  17:15      0.163
  c_128_vr_storage_5       0.029    0.0    0.0    0.0       0.931    0.0       8  17:15      6.534
  c_1285_vr_storage_5      0.000    0.0    0.0    0.0       0.021    0.0       8  17:15      0.168
  c_127_vr_storage_5       0.006    0.0    0.0    0.0       0.832    0.0       8  17:17      5.682
  c_126_vr_storage_5       0.001    0.0    0.0    0.0       0.193    0.0       8  17:15      0.981
  c_125_vr_storage_5       0.000    0.0    0.0    0.0       0.053    0.0       8  17:10      0.420
  c_124_storage           31.920    0.3    0.0    0.0      66.181    0.7       9  00:00      0.000
  c_136_vr_storage_5       0.009    0.0    0.0    0.0       0.285    0.0       8  18:20      1.283
  c_135_vr_storage_5       0.001    0.0    0.0    0.0       0.037    0.0       8  18:15      0.285
  c_131_vr_storage_5       0.002    0.0    0.0    0.0       0.049    0.0       8  18:16      0.297
  c_130_vr_storage_5       0.000    0.0    0.0    0.0       0.008    0.0       8  17:15      0.062
  c_134_vr_storage_5       0.000    0.0    0.0    0.0       0.009    0.0       8  18:15      0.070
  c_132_vr_storage_5       0.000    0.0    0.0    0.0       0.008    0.0       8  17:15      0.062
  Aalst_gemaal             2.727    1.9    0.0    0.0     124.005   85.6       9  00:00      2.100
  pre_ontvangstkelder      0.248   85.4    0.0    0.0       0.273   94.2       0  01:27      3.888
  c_150_vr_storage_57      0.174    0.0    0.0    0.0      10.606    0.1       8  17:55      5.266
  c_123_vr_storage_40      0.071    0.0    0.0    0.0       3.515    0.0       8  17:40      2.018
  c_143_vr_storage_70      1.012    0.0    0.0    0.0      22.094    0.2       8  18:40      6.232
  c_147_vr_storage_4       0.000    0.0    0.0    0.0       0.016    0.0       8  17:05      0.129
  c_160_vr_storage_8       0.025    0.0    0.0    0.0       0.082    0.0       8  17:10      0.187
  c_145_vr_storage_4       0.000    0.0    0.0    0.0       0.008    0.0       8  17:05      0.059
  c_144_vr_storage_19      0.007    0.0    0.0    0.0       0.382    0.0       8  17:20      0.406
  c_142_vr_storage_35      0.048    0.0    0.0    0.0       2.089    0.0       8  17:35      1.294
  c_148_vr_storage_12      0.001    0.0    0.0    0.0       0.122    0.0       8  17:10      0.296
  c_149_vr_storage_17      0.003    0.0    0.0    0.0       0.210    0.0       8  17:15      0.304
  c_151_vr_storage_22      0.008    0.0    0.0    0.0       0.556    0.0       8  17:20      0.602
  c_161_vr_storage_32      0.025    0.0    0.0    0.0       1.457    0.0       8  17:30      1.020
  c_138_vr_storage_22      0.014    0.0    0.0    0.0       0.638    0.0       8  17:20      0.643
  c_139_vr_storage_8       0.000    0.0    0.0    0.0       0.053    0.0       8  17:10      0.130
  c_137_vr_storage_4       0.000    0.0    0.0    0.0       0.008    0.0       8  17:05      0.060
  c_122_vr_storage_29      0.025    0.0    0.0    0.0       2.029    0.0       8  17:20      1.666
  c_121_vr_storage_12      0.003    0.0    0.0    0.0       0.071    0.0       8  17:15      0.149
  c_120_vr_storage_8       0.001    0.0    0.0    0.0       0.032    0.0       8  17:05      0.078
  c_119_vr_storage_80      0.525    0.0    0.0    0.0      17.509    0.2       8  18:10      4.829
  c_100_vr_storage_10      0.001    0.0    0.0    0.0       0.069    0.0       8  17:05      0.176
  c_118_vr_storage_13      0.002    0.0    0.0    0.0       0.181    0.0       8  17:07      0.284
  c_116_vr_storage_15      0.005    0.0    0.0    0.0       0.256    0.0       8  17:15      0.341
  c_114_vr_storage_10      0.001    0.0    0.0    0.0       0.057    0.0       8  17:05      0.145
  c_112_vr_storage_21      0.007    0.0    0.0    0.0       1.149    0.0       8  17:10      1.366
  c_107_vr_storage_36      0.054    0.0    0.0    0.0       1.832    0.0       8  17:35      1.164
  c_107_2_vr_storage_12     0.001    0.0    0.0    0.0       0.054    0.0       8  17:05      0.136
  c_106_vr_storage_13      0.003    0.0    0.0    0.0       0.119    0.0       8  17:10      0.186
  c_99_vr_storage_41       0.065    0.0    0.0    0.0       2.436    0.0       8  17:34      1.249
  c_103_vr_storage_8       0.001    0.0    0.0    0.0       0.041    0.0       8  17:05      0.105
  c_98_vr_storage_20       0.008    0.0    0.0    0.0       0.361    0.0       8  17:15      0.388
  gb127                    0.261    1.4    0.0    0.0       9.381   50.4       8  18:20      2.934
  c_123                    0.221    0.7    0.0    0.0       9.773   32.6       8  21:55      0.284
  c_122                    0.322    3.2    0.0    0.0       6.357   63.6       8  21:59      0.031
  c_112                    0.065    3.3    0.0    0.0       1.719   86.0       8  19:30      0.384
  c_99                     0.065    0.3    0.0    0.0       3.635   18.2       8  20:45      0.556
  c_119_1                  0.227    2.3    0.0    0.0       5.050   50.5       8  20:35      1.604
  c_119_2                  0.161    1.6    0.0    0.0       7.017   70.2       8  21:30      0.615
  c_119_3                  0.184    0.9    0.0    0.0       8.464   42.3       8  22:20      0.389
  
  
  ***********************
  Outfall Loading Summary
  ***********************
  
  -----------------------------------------------------------
                         Flow       Avg       Max       Total
                         Freq      Flow      Flow      Volume
  Outfall Node           Pcnt       CMS       CMS    10^6 ltr
  -----------------------------------------------------------
  cso_Geldrop            1.45     0.917     2.548      10.354
  cso_gb_136             1.94     0.271     0.744       4.082
  cso_RZ                 0.00     0.445     0.827       0.015
  cso_ES_1               0.03     0.049     0.119       0.013
  cso_AALST              0.00     0.000     0.000       0.000
  out_ES                92.62     0.770     3.888     554.647
  out_RZ               100.00     3.545     3.888    2756.305
  cso_gb127              1.72     1.104     2.618      14.782
  cso_c_122              0.00     0.000     0.000       0.000
  cso_c_119_1            2.00     0.617     1.361       9.605
  cso_c_112              1.14     0.149     0.323       1.321
  cso_c_99               0.00     0.000     0.000       0.000
  cso_c_123              0.00     0.000     0.000       0.000
  cso_c_119_2            0.44     0.120     0.275       0.409
  cso_c_119_3            0.00     0.000     0.000       0.000
  -----------------------------------------------------------
  System                13.42     7.986     9.301    3351.535
  
  
  ********************
  Link Flow Summary
  ********************
  
  -----------------------------------------------------------------------------
                                 Maximum  Time of Max   Maximum    Max/    Max/
                                  |Flow|   Occurrence   |Veloc|    Full    Full
  Link                 Type          CMS  days hr:min     m/sec    Flow   Depth
  -----------------------------------------------------------------------------
  Con_158              CONDUIT     8.382     0  01:30      1.51    0.23    1.00
  Con_159              CONDUIT     2.079     0  00:49      0.79    0.31    1.00
  Con_160              CONDUIT     2.081     0  00:49      1.04    0.10    1.00
  Con_101              CONDUIT     0.936     0  00:17      0.91    2.91    1.00
  Con_102              CONDUIT     0.880     0  00:30      0.82    1.92    1.00
  Con_103              CONDUIT     0.805     0  00:36      0.91    1.06    1.00
  Con_104              CONDUIT     0.818     0  00:35      1.51    0.82    1.00
  Con_105              CONDUIT     0.797     0  22:06      1.03    1.70    1.00
  Con_106              CONDUIT     0.905     0  01:23      0.94    1.18    1.00
  Con_107              CONDUIT     3.310     0  01:23      0.92    0.80    1.00
  Con_108              CONDUIT     3.558     0  01:20      1.30    0.81    1.00
  Con_109              CONDUIT     9.561     0  00:41      2.15    1.62    1.00
  Con_110              CONDUIT     9.443     0  00:45      2.23    1.46    1.00
  Con_157              CONDUIT     8.381     0  01:30      1.52    0.23    1.00
  Con_111              CONDUIT     8.853     0  00:46      1.65    1.55    1.00
  Con_112              CONDUIT     7.635     0  00:44      1.79    1.04    1.00
  Con_113              CONDUIT     7.094     0  00:50      1.97    1.64    1.00
  Con_114              CONDUIT     7.094     0  00:50      1.97    1.79    1.00
  Con_115              CONDUIT     7.095     0  00:50      1.99    1.70    1.00
  Con_116              CONDUIT     7.012     0  00:50      2.04    1.69    1.00
  Con_117              CONDUIT     6.324     0  00:49      1.93    0.42    1.00
  Con_118              CONDUIT     4.056     0  01:19      1.15    1.03    1.00
  Con_119              CONDUIT     4.093     0  01:19      1.02    0.82    1.00
  Con_120              CONDUIT     4.045     0  01:19      1.00    0.85    1.00
  Con_121              CONDUIT     4.067     0  01:19      1.22    0.80    1.00
  Con_122              CONDUIT     5.224     0  22:03      4.27    1.12    1.00
  Con_123              CONDUIT     5.223     0  22:03      6.72    0.06    1.00
  Con_125              CONDUIT     1.586     0  00:21      0.73    0.69    1.00
  Con_126              CONDUIT     2.798     0  00:37      0.98    1.91    1.00
  Con_127              CONDUIT     2.108     0  01:39      1.72    0.33    1.00
  Con_128              CONDUIT     2.554     0  00:04      1.37    1.07    1.00
  Con_129              CONDUIT    10.511     0  00:12      4.13    1.37    1.00
  Con_130              CONDUIT    10.581     0  00:12      1.98    2.22    1.00
  Con_140              CONDUIT    10.272     0  00:14      2.11    1.92    1.00
  Con_141              CONDUIT    10.412     0  00:14      2.03    2.18    1.00
  Con_142              CONDUIT     9.605     0  00:42      1.84    2.03    1.00
  Con_143              CONDUIT     9.605     0  00:42      2.17    2.01    1.00
  Con_144              CONDUIT     9.605     0  00:42      2.10    2.59    1.00
  Con_152              CONDUIT     6.058     0  00:52      1.99    2.27    1.00
  Con_153              CONDUIT     4.988     0  01:00      1.51    1.74    1.00
  Con_154              CONDUIT     4.888     0  01:00      1.56    1.91    1.00
  Con_155              CONDUIT     4.860     0  01:08      1.45    1.50    1.00
  Con_156              CONDUIT     4.951     0  01:07      1.93    1.34    1.00
  eeneind_out          CONDUIT     0.091     9  00:00      3.53    0.99    0.63
  P_c_24_d_5           PUMP       10.632     8  19:35              1.06
  P_c_23_d_7           PUMP        0.015     8  19:35              0.00
  P_c_22_d_5           PUMP        0.007     8  19:35              0.00
  P_c_21_d_7           PUMP        0.016     8  19:35              0.00
  P_c_12_d_8           PUMP        0.019     8  19:40              0.00
  P_c_20_d_13          PUMP        0.045     8  19:45              0.00
  P_c_19_d_7           PUMP        0.016     8  19:35              0.00
  P_c_10_d_10          PUMP        0.018     8  19:40              0.00
  P_c_16_d_20          PUMP        0.118     8  19:50              0.01
  P_c_15_d_24          PUMP        0.153     8  19:55              0.02
  P_c_14_d_24          PUMP        0.159     8  19:55              0.02
  P_c_129_d_5          PUMP        0.163     8  17:15              0.02
  P_c_128_d_5          PUMP        6.534     8  17:15              0.65
  P_c_1285_d_5         PUMP        0.168     8  17:15              0.02
  P_c_127_d_5          PUMP        5.682     8  17:15              0.57
  P_c_126_d_5          PUMP        0.981     8  17:15              0.10
  P_c_125_d_5          PUMP        0.420     8  17:10              0.04
  P_c_136_d_5          PUMP        1.283     8  18:20              0.13
  P_c_135_d_5          PUMP        0.285     8  18:15              0.03
  P_c_131_d_5          PUMP        0.297     8  18:15              0.03
  P_c_130_d_5          PUMP        0.062     8  17:15              0.01
  P_c_134_d_5          PUMP        0.070     8  18:15              0.01
  P_c_132_d_5          PUMP        0.062     8  17:15              0.01
  Con_1119.1           PUMP        0.191     8  17:10              1.00
  P_riool_zuid_out     PUMP        3.888     0  22:00              0.82
  P_eindhoven_out      PUMP        3.888     3  03:00              1.00
  P_c_150_d_57         PUMP        5.266     8  17:55              0.53
  P_c_123_d_40         PUMP        2.018     8  17:40              0.20
  P_c_143_d_70         PUMP        6.232     8  18:45              0.62
  P_c_147_d_4          PUMP        0.129     8  17:05              0.01
  P_c_160_d_8          PUMP        0.187     8  17:10              0.02
  P_c_145_d_4          PUMP        0.059     8  17:05              0.01
  P_c_144_d_19         PUMP        0.406     8  17:20              0.04
  P_c_142_d_35         PUMP        1.294     8  17:35              0.13
  P_c_148_d_12         PUMP        0.296     8  17:10              0.03
  P_c_149_d_17         PUMP        0.304     8  17:15              0.03
  P_c_151_d_22         PUMP        0.602     8  17:20              0.06
  P_c_161_d_32         PUMP        1.020     8  17:30              0.10
  P_c_138_d_22         PUMP        0.643     8  17:30              0.06
  P_c_139_d_8          PUMP        0.130     8  17:10              0.01
  P_c_137_d_4          PUMP        0.060     8  17:05              0.01
  P_c_122_d_29         PUMP        1.666     8  17:25              0.17
  P_c_121_d_12         PUMP        0.149     8  17:15              0.01
  P_c_120_d_8          PUMP        0.078     8  17:05              0.01
  P_c_119_d_80         PUMP        4.829     8  18:25              0.48
  P_c_100_d_10         PUMP        0.176     8  17:05              0.02
  P_c_118_d_13         PUMP        0.284     8  17:10              0.03
  P_c_116_d_15         PUMP        0.341     8  17:20              0.03
  P_c_114_d_10         PUMP        0.145     8  17:05              0.01
  P_c_112_d_21         PUMP        1.366     8  17:15              0.14
  P_c_107_d_36         PUMP        1.164     8  17:40              0.12
  P_c_107_2_d_12       PUMP        0.136     8  17:05              0.01
  P_c_106_d_13         PUMP        0.186     8  17:10              0.02
  P_c_99_d_41          PUMP        1.249     8  17:40              0.12
  P_c_103_d_8          PUMP        0.105     8  17:05              0.01
  P_c_98_d_20          PUMP        0.388     8  17:15              0.04
  P_aalst_1            PUMP        0.560     0  00:05              1.00
  P_aalst_2            PUMP        0.560     0  00:05              1.00
  P_aalst_3            PUMP        0.490     0  00:05              1.00
  P_aalst_4            PUMP        0.490     0  00:00              1.00
  P_pipe_Geldrop       PUMP        0.800     8  17:10              1.00
  P_gb127              PUMP        0.316     2  10:00              1.00
  P_c_99               PUMP        0.556     8  17:30              1.00
  P_c_112              PUMP        0.061     2  09:20              1.00
  P_c_119_1            PUMP        0.243     0  00:00              1.00
  P_c_122              PUMP        0.031     2  09:30              1.00
  P_c_123              PUMP        0.284     2  10:30              1.00
  P_c_119_2            PUMP        0.340     0  00:00              1.00
  P_c_119_3            PUMP        0.389     0  00:00              1.00
  P_c_119_fr_040       PUMP       10.000     0  00:00              1.00
  P_c_119_fr_028       PUMP       10.000     0  00:00              1.00
  P_c_119_fr_032       PUMP       10.000     0  00:00              1.00
  P_geldrop_split_1    PUMP       10.000     0  00:00              1.00
  P_geldrop_split_2    PUMP       10.000     0  00:00              1.00
  weir_gb_136          WEIR        0.744     8  20:05                      0.03
  Con_A*HLCMRZ1135.1   WEIR        0.827     0  00:49                      0.22
  weir_ES              WEIR        0.119     9  00:00                      0.01
  Aalst_weir           WEIR        0.000     0  00:00                      0.00
  weir_gb127           WEIR        2.618     8  18:20                      0.08
  weir_pipe_Geldrop    WEIR        2.548     8  19:45                      0.08
  weir_c_123           WEIR        0.000     0  00:00                      0.00
  weir_c_99            WEIR        0.000     0  00:00                      0.00
  weir_c_112           WEIR        0.323     8  19:30                      0.02
  weir_c_119_1         WEIR        1.361     8  20:35                      0.05
  weir_c_122           WEIR        0.000     0  00:00                      0.00
  weir_c_119_2         WEIR        0.275     8  21:30                      0.02
  weir_c_119_3         WEIR        0.000     0  00:00                      0.00
  
  
  ***************************
  Flow Classification Summary
  ***************************
  
  -------------------------------------------------------------------------------------
                      Adjusted    ---------- Fraction of Time in Flow Class ---------- 
                       /Actual         Up    Down  Sub   Sup   Up    Down  Norm  Inlet 
  Conduit               Length    Dry  Dry   Dry   Crit  Crit  Crit  Crit  Ltd   Ctrl  
  -------------------------------------------------------------------------------------
  Con_158                 1.00   0.00  0.00  0.00  1.00  0.00  0.00  0.00  0.00  0.00
  Con_159                 1.00   0.00  0.00  0.00  1.00  0.00  0.00  0.00  0.00  0.00
  Con_160                 1.00   0.00  0.00  0.00  1.00  0.00  0.00  0.00  0.00  0.00
  Con_101                 1.00   0.00  0.00  0.00  1.00  0.00  0.00  0.00  0.00  0.00
  Con_102                 1.00   0.00  0.00  0.00  1.00  0.00  0.00  0.00  0.00  0.00
  Con_103                 1.00   0.00  0.00  0.00  1.00  0.00  0.00  0.00  0.00  0.00
  Con_104                 1.00   0.00  0.00  0.00  1.00  0.00  0.00  0.00  0.00  0.00
  Con_105                 1.00   0.00  0.00  0.00  1.00  0.00  0.00  0.00  0.00  0.00
  Con_106                 1.00   0.00  0.00  0.00  0.99  0.00  0.00  0.01  0.00  0.00
  Con_107                 1.00   0.00  0.00  0.00  1.00  0.00  0.00  0.00  0.00  0.00
  Con_108                 1.00   0.00  0.00  0.00  1.00  0.00  0.00  0.00  0.00  0.00
  Con_109                 1.00   0.00  0.00  0.00  1.00  0.00  0.00  0.00  0.00  0.00
  Con_110                 1.00   0.00  0.00  0.00  1.00  0.00  0.00  0.00  0.00  0.00
  Con_157                 1.00   0.00  0.00  0.00  1.00  0.00  0.00  0.00  0.00  0.00
  Con_111                 1.00   0.00  0.00  0.00  1.00  0.00  0.00  0.00  0.00  0.00
  Con_112                 1.00   0.00  0.00  0.00  1.00  0.00  0.00  0.00  0.00  0.00
  Con_113                 1.00   0.00  0.00  0.00  1.00  0.00  0.00  0.00  0.00  0.00
  Con_114                 1.00   0.00  0.00  0.00  1.00  0.00  0.00  0.00  0.00  0.00
  Con_115                 1.00   0.00  0.00  0.00  1.00  0.00  0.00  0.00  0.00  0.00
  Con_116                 1.00   0.00  0.00  0.00  1.00  0.00  0.00  0.00  0.00  0.00
  Con_117                 1.00   0.00  0.00  0.00  1.00  0.00  0.00  0.00  0.00  0.00
  Con_118                 1.00   0.00  0.00  0.00  1.00  0.00  0.00  0.00  0.00  0.00
  Con_119                 1.00   0.00  0.00  0.00  1.00  0.00  0.00  0.00  0.00  0.00
  Con_120                 1.00   0.00  0.00  0.00  1.00  0.00  0.00  0.00  0.00  0.00
  Con_121                 1.00   0.00  0.00  0.00  1.00  0.00  0.00  0.00  0.00  0.00
  Con_122                 1.00   0.00  0.00  0.00  1.00  0.00  0.00  0.00  0.00  0.00
  Con_123                 1.00   0.00  0.00  0.00  1.00  0.00  0.00  0.00  0.00  0.00
  Con_125                 1.00   0.00  0.00  0.00  1.00  0.00  0.00  0.00  0.00  0.00
  Con_126                 1.00   0.00  0.00  0.00  1.00  0.00  0.00  0.00  0.00  0.00
  Con_127                 1.00   0.00  0.00  0.00  1.00  0.00  0.00  0.00  0.00  0.00
  Con_128                 1.00   0.00  0.00  0.00  1.00  0.00  0.00  0.00  0.00  0.00
  Con_129                 1.00   0.00  0.00  0.00  1.00  0.00  0.00  0.00  0.00  0.00
  Con_130                 1.00   0.00  0.00  0.00  1.00  0.00  0.00  0.00  0.00  0.00
  Con_140                 1.00   0.00  0.00  0.00  1.00  0.00  0.00  0.00  0.00  0.00
  Con_141                 1.00   0.00  0.00  0.00  1.00  0.00  0.00  0.00  0.00  0.00
  Con_142                 1.00   0.00  0.00  0.00  1.00  0.00  0.00  0.00  0.00  0.00
  Con_143                 1.00   0.00  0.00  0.00  1.00  0.00  0.00  0.00  0.00  0.00
  Con_144                 1.00   0.00  0.00  0.00  1.00  0.00  0.00  0.00  0.00  0.00
  Con_152                 1.00   0.00  0.00  0.00  1.00  0.00  0.00  0.00  0.00  0.00
  Con_153                 1.00   0.00  0.00  0.00  1.00  0.00  0.00  0.00  0.00  0.00
  Con_154                 1.00   0.00  0.00  0.00  1.00  0.00  0.00  0.00  0.00  0.00
  Con_155                 1.00   0.00  0.00  0.00  1.00  0.00  0.00  0.00  0.00  0.00
  Con_156                 1.00   0.00  0.00  0.00  1.00  0.00  0.00  0.00  0.00  0.00
  eeneind_out             1.00   0.00  0.00  0.00  0.00  1.00  0.00  0.00  0.00  0.00
  
  
  *************************
  Conduit Surcharge Summary
  *************************
  
  ----------------------------------------------------------------------------
                                                           Hours        Hours 
                         --------- Hours Full --------   Above Full   Capacity
  Conduit                Both Ends  Upstream  Dnstream   Normal Flow   Limited
  ----------------------------------------------------------------------------
  Con_158                   215.25    215.25    215.25      0.01         0.01
  Con_159                   215.22    215.22    215.25      0.01         0.07
  Con_160                   215.22    215.22    215.29      0.01         0.01
  Con_101                   214.55    216.00    214.55    216.00       214.55
  Con_102                   214.39    215.68    214.39    215.85       214.38
  Con_103                   214.42    214.42    214.52      1.01         0.06
  Con_104                   214.39    214.39    214.42      0.01         0.01
  Con_105                   214.41    214.52    214.41    195.09       193.81
  Con_106                   214.38    214.41    214.47      0.15         0.03
  Con_107                   214.62    214.62    214.65      0.01         0.01
  Con_108                   214.65    214.65    214.66      0.01         0.01
  Con_109                   215.21    215.35    215.21    215.67       215.20
  Con_110                   215.19    215.21    215.19    215.58       215.19
  Con_157                   215.25    215.25    215.31      0.01         0.02
  Con_111                   215.30    215.31    215.30      0.36         0.16
  Con_112                   215.20    215.20    215.22      0.05         0.02
  Con_113                   215.27    215.29    215.27      0.73         0.58
  Con_114                   215.26    215.27    215.26      0.78         0.63
  Con_115                   215.16    215.26    215.16      0.71         0.50
  Con_116                   215.14    215.16    215.14      0.61         0.48
  Con_117                   215.13    215.13    215.23      0.01         0.01
  Con_118                   214.66    214.66    214.67      0.01         0.01
  Con_119                   214.67    214.67    214.69      0.01         0.02
  Con_120                   214.69    214.69    214.71      0.01         0.01
  Con_121                   214.71    214.71    214.72      0.01         0.01
  Con_122                   214.72    214.72    214.73      0.08         0.09
  Con_123                   214.73    214.73    215.07      0.01         0.01
  Con_125                   215.50    215.50    215.80      0.01         0.01
  Con_126                   214.52    214.52    215.40     17.83        18.57
  Con_127                   215.40    215.40    215.50      0.01         0.35
  Con_128                   215.80    215.80    215.83      0.05         0.01
  Con_129                   215.82    215.82    215.84    215.90       215.81
  Con_130                   215.77    215.79    215.77    215.95       215.77
  Con_140                   215.76    215.77    215.76    215.90       215.75
  Con_141                   215.71    215.76    215.71    215.89       215.71
  Con_142                   215.70    215.71    215.70    215.85       215.70
  Con_143                   215.69    215.70    215.69    215.84       215.68
  Con_144                   215.19    215.69    215.19    215.75       215.19
  Con_152                   215.00    215.14    215.00    194.60       194.40
  Con_153                   214.77    215.00    214.77    194.52       194.16
  Con_154                   214.72    214.77    214.72    194.53       194.12
  Con_155                   214.71    214.72    214.71      0.68         0.32
  Con_156                   214.71    214.71    214.72      0.43         0.07
  eeneind_out                 0.01      0.01    215.86      0.01         0.01
  
  
  ***************
  Pumping Summary
  ***************
  
  ---------------------------------------------------------------------------------------------------------
                                                  Min       Avg       Max     Total     Power    % Time Off
                        Percent   Number of      Flow      Flow      Flow    Volume     Usage    Pump Curve
  Pump                 Utilized   Start-Ups       CMS       CMS       CMS  10^6 ltr     Kw-hr    Low   High
  ---------------------------------------------------------------------------------------------------------
  P_c_24_d_5             100.00           1      0.00      0.93     10.63   720.324    945.44    0.0  100.0
  P_c_23_d_7             100.00           1      0.00      0.00      0.01     1.078      0.00    0.0  100.0
  P_c_22_d_5              14.12           3      0.00      0.00      0.01     0.152      0.00    0.0  100.0
  P_c_21_d_7             100.00           1      0.00      0.00      0.02     1.050      0.00    0.0  100.0
  P_c_12_d_8             100.00           1      0.00      0.00      0.02     1.588      0.00    0.0   99.9
  P_c_20_d_13             16.82           2      0.00      0.01      0.04     0.941      0.00    0.0   91.9
  P_c_19_d_7             100.00           1      0.00      0.00      0.02     0.918      0.00    0.0  100.0
  P_c_10_d_10             17.82           2      0.00      0.00      0.02     0.433      0.00    0.0   89.7
  P_c_16_d_20             16.81           2      0.00      0.02      0.12     2.474      0.01    0.0   89.1
  P_c_15_d_24            100.00           1      0.00      0.01      0.15     4.036      0.01    0.0   98.2
  P_c_14_d_24             16.75           2      0.00      0.03      0.16     3.322      0.01    0.0   89.0
  P_c_129_d_5             11.47           5      0.00      0.01      0.16     1.056      0.00    0.0  100.0
  P_c_128_d_5            100.00           1      0.00      0.20      6.53   152.899   6576.48    0.0  100.0
  P_c_1285_d_5           100.00           1      0.00      0.00      0.17     1.570      0.00    0.0  100.0
  P_c_127_d_5            100.00           1      0.00      0.08      5.68    58.400     60.73    0.0    4.0
  P_c_126_d_5            100.00           1      0.00      0.03      0.98    23.345      0.00    0.0   91.5
  P_c_125_d_5            100.00           1      0.00      0.00      0.42     1.414      0.00    0.0  100.0
  P_c_136_d_5            100.00           1      0.00      0.05      1.28    41.993   1909.89    0.0  100.0
  P_c_135_d_5            100.00           1      0.00      0.01      0.28     6.408      0.00    0.0  100.0
  P_c_131_d_5            100.00           1      0.00      0.01      0.30     7.416      0.00    0.0  100.0
  P_c_130_d_5            100.00           1      0.00      0.00      0.06     1.447      0.00    0.0  100.0
  P_c_134_d_5            100.00           1      0.00      0.00      0.07     1.487      0.00    0.0  100.0
  P_c_132_d_5            100.00           1      0.00      0.00      0.06     1.261      0.00    0.0  100.0
  Con_1119.1             100.00           1      0.00      0.04      0.19    29.259     70.71    0.0    3.2
  P_riool_zuid_out       100.00           1      0.00      3.55      3.89  2756.309 107031.57    0.0   99.9
  P_eindhoven_out         92.62         290      0.00      0.77      3.89   554.648    380.01    0.0  100.0
  P_c_150_d_57           100.00           1      0.00      0.07      5.27    52.510    158.15    0.0   99.3
  P_c_123_d_40           100.00           1      0.00      0.03      2.02    26.190    241.58    0.0    3.2
  P_c_143_d_70           100.00           1      0.00      0.27      6.23   210.704    459.16    0.0   50.9
  P_c_147_d_4              8.60           3      0.00      0.01      0.13     0.843      0.03    0.0  100.0
  P_c_160_d_8            100.00           1      0.00      0.05      0.19    40.582      0.16    0.0  100.0
  P_c_145_d_4            100.00           1      0.00      0.00      0.06     0.725      0.01    0.0  100.0
  P_c_144_d_19           100.00           1      0.00      0.01      0.41     5.498      0.16    0.0  100.0
  P_c_142_d_35           100.00           1      0.00      0.03      1.29    20.241      0.53    0.0  100.0
  P_c_148_d_12           100.00           1      0.00      0.00      0.30     2.868      0.08    0.0  100.0
  P_c_149_d_17            10.56           3      0.00      0.04      0.30     3.343      0.12    0.0  100.0
  P_c_151_d_22           100.00           1      0.00      0.01      0.60     6.055      0.20    0.0  100.0
  P_c_161_d_32            10.80           3      0.00      0.14      1.02    12.137      0.44    0.0  100.0
  P_c_138_d_22           100.00           1      0.00      0.01      0.64    10.718      0.25    0.0  100.0
  P_c_139_d_8              8.66           3      0.00      0.01      0.13     0.897      0.00    0.0  100.0
  P_c_137_d_4            100.00           1      0.00      0.00      0.06     1.534      0.00    0.0  100.0
  P_c_122_d_29           100.00           1      0.00      0.02      1.67    13.352     74.28    0.0   16.6
  P_c_121_d_12           100.00           1      0.00      0.01      0.15     9.490     11.14    0.0   99.3
  P_c_120_d_8            100.00           1      0.00      0.00      0.08     1.774      0.00    0.0   99.9
  P_c_119_d_80           100.00           1      0.00      0.12      4.83    92.323 1408031.27    0.0   94.5
  P_c_100_d_10           100.00           1      0.00      0.00      0.18     1.727      0.03    0.0  100.0
  P_c_118_d_13             7.13           3      0.00      0.04      0.28     2.041      0.06    0.0  100.0
  P_c_116_d_15           100.00           1      0.00      0.01      0.34     4.959     11.31    0.0   99.3
  P_c_114_d_10           100.00           1      0.00      0.00      0.14     1.649      0.00    0.0  100.0
  P_c_112_d_21           100.00           1      0.00      0.01      1.37     6.756     16.02    0.0    6.6
  P_c_107_d_36           100.00           1      0.00      0.16      1.16   122.706    102.24    0.0   99.3
  P_c_107_2_d_12         100.00           1      0.00      0.00      0.14     1.769      0.00    0.0  100.0
  P_c_106_d_13           100.00           1      0.00      0.01      0.19    11.244      0.01    0.0  100.0
  P_c_99_d_41            100.00           1      0.00      0.03      1.25    23.884     76.93    0.0    3.0
  P_c_103_d_8            100.00           1      0.00      0.00      0.10     1.173      0.00    0.0  100.0
  P_c_98_d_20            100.00           1      0.00      0.01      0.39     6.634     16.10    0.0   99.3
  P_aalst_1               11.42          96      0.00      0.55      0.56    49.030   2609.35    0.0   94.3
  P_aalst_2                8.45          23      0.00      0.56      0.56    36.474   1924.27    0.0   97.9
  P_aalst_3                8.10          17      0.00      0.49      0.49    30.649   1614.17    0.0   98.8
  P_aalst_4              100.00           1      0.00      0.38      0.49   294.017  15941.27    0.0   99.3
  P_pipe_Geldrop         100.00           1      0.00      0.15      0.80   115.719    128.80    0.0    3.2
  P_gb127                100.00           1      0.00      0.05      0.32    36.734     17.43    0.0    4.0
  P_c_99                 100.00           1      0.00      0.03      0.56    23.885     50.78    0.0    3.0
  P_c_112                100.00           1      0.00      0.01      0.06     4.398      4.89    0.0    6.6
  P_c_119_1              100.00           5      0.00      0.03      0.24    25.310     73.98    0.0  100.0
  P_c_122                100.00           1      0.00      0.01      0.03     7.105     14.35    0.0   16.6
  P_c_123                100.00           1      0.00      0.02      0.28    17.250    114.30    0.0    3.2
  P_c_119_2              100.00           4      0.00      0.03      0.34    22.136     89.49    0.0  100.0
  P_c_119_3              100.00           4      0.00      0.03      0.39    24.875    120.19    0.0  100.0
  P_c_119_fr_040         100.00           1      0.00      0.05     10.00    39.870 562841.97    0.0    5.5
  P_c_119_fr_028         100.00           1      0.00      0.04     10.00    28.809 394016.58    0.0    5.5
  P_c_119_fr_032         100.00           1      0.00      0.04     10.00    32.496 450272.76    0.0    5.5
  P_geldrop_split_1      100.00           1      0.00     10.00     10.00  7775.176 115327.96    0.0  100.0
  P_geldrop_split_2      100.00           1      0.00     10.00     10.00  7775.176  50598.14    0.0  100.0
  

  Analysis begun on:  Wed Apr  9 15:24:28 2025
  Analysis ended on:  Wed Apr  9 15:25:25 2025
  Total elapsed time: 00:00:57