
  EPA STORM WATER MANAGEMENT MODEL - VERSION 5.2 (Build 5.2.4)
  PYSWMM TOOLKIT API - VERSION v1.0 (2023-11-27)
  ------------------------------------------------------------

  WARNING 02: maximum depth increased for Node gb127
  
  ****************
  Analysis Options
  ****************
  Flow Units ............... CMS
  Process Models:
    Rainfall/Runoff ........ YES
    RDII ................... NO
    Snowmelt ............... NO
    Groundwater ............ NO
    Flow Routing ........... YES
    Ponding Allowed ........ NO
    Water Quality .......... NO
  Infiltration Method ...... HORTON
  Flow Routing Method ...... DYNWAVE
  Surcharge Method ......... EXTRAN
  Starting Date ............ 07/01/2024 00:00:00
  Ending Date .............. 08/01/2024 00:00:00
  Antecedent Dry Days ...... 0.0
  Report Time Step ......... 00:05:00
  Wet Time Step ............ 00:01:00
  Dry Time Step ............ 00:10:00
  Routing Time Step ........ 2.00 sec
  Variable Time Step ....... YES
  Maximum Trials ........... 12
  Number of Threads ........ 2
  Head Tolerance ........... 0.000200 m
  
  
  *********************
  Rainfall File Summary
  *********************
  Station    First        Last         Recording   Periods    Periods    Periods
  ID         Date         Date         Frequency  w/Precip    Missing    Malfunc.
  -------------------------------------------------------------------------------
  ES         01/01/2024   12/31/2024       5 min    105217          0          0

  GE         01/01/2024   12/31/2024       5 min    105217          0          0

  RZ1        01/01/2024   12/31/2024       5 min    105217          0          0

  RZ2        01/01/2024   12/31/2024       5 min    105217          0          0

  
  
  **************************        Volume         Depth
  Runoff Quantity Continuity     hectare-m            mm
  **************************     ---------       -------
  Total Precipitation ......       320.946        76.077
  Evaporation Loss .........       131.262        31.114
  Infiltration Loss ........         0.000         0.000
  Surface Runoff ...........       189.693        44.965
  Final Storage ............         0.000         0.000
  Continuity Error (%) .....        -0.003
  
  
  **************************        Volume        Volume
  Flow Routing Continuity        hectare-m      10^6 ltr
  **************************     ---------     ---------
  Dry Weather Inflow .......       220.277      2202.791
  Wet Weather Inflow .......       189.693      1896.952
  Groundwater Inflow .......         0.000         0.000
  RDII Inflow ..............         0.000         0.000
  External Inflow ..........        96.923       969.241
  External Outflow .........       505.286      5052.909
  Flooding Loss ............         0.429         4.291
  Evaporation Loss .........         0.011         0.110
  Exfiltration Loss ........         0.000         0.000
  Initial Stored Volume ....         0.804         8.043
  Final Stored Volume ......         4.016        40.160
  Continuity Error (%) .....        -0.403
  
  
  *************************
  Highest Continuity Errors
  *************************
  Node J119 (-3.48%)
  Node Nod_A*HLCMRZ1135 (3.02%)
  Node J1 (-1.45%)
  
  
  ***************************
  Time-Step Critical Elements
  ***************************
  None
  
  
  ********************************
  Highest Flow Instability Indexes
  ********************************
  Link P_riool_zuid_out (3)
  Link Con_117 (2)
  Link Con_152 (1)
  
  
  *********************************
  Most Frequent Nonconverging Nodes
  *********************************
  Node cso_Geldrop (1.06%)
  Node cso_gb_136 (1.06%)
  Node cso_RZ (1.06%)
  Node cso_ES_1 (1.06%)
  Node cso_AALST (1.06%)
  
  
  *************************
  Routing Time Step Summary
  *************************
  Minimum Time Step           :     1.50 sec
  Average Time Step           :     2.00 sec
  Maximum Time Step           :     2.00 sec
  % of Time in Steady State   :     0.00
  Average Iterations per Step :     2.14
  % of Steps Not Converging   :     1.06
  Time Step Frequencies       :
      2.000 -  1.516 sec      :   100.00 %
      1.516 -  1.149 sec      :     0.00 %
      1.149 -  0.871 sec      :     0.00 %
      0.871 -  0.660 sec      :     0.00 %
      0.660 -  0.500 sec      :     0.00 %
  
  
  ***************************
  Subcatchment Runoff Summary
  ***************************
  
  ------------------------------------------------------------------------------------------------------------------------------
                            Total      Total      Total      Total     Imperv       Perv      Total       Total     Peak  Runoff
                           Precip      Runon       Evap      Infil     Runoff     Runoff     Runoff      Runoff   Runoff   Coeff
  Subcatchment                 mm         mm         mm         mm         mm         mm         mm    10^6 ltr      CMS
  ------------------------------------------------------------------------------------------------------------------------------
  c_24_catchment            73.04       0.00      33.28       0.00      39.76       0.00      39.76      763.01    18.30   0.544
  c_23_catchment            73.04       0.00      34.04       0.00      39.00       0.00      39.00        1.17     0.03   0.534
  c_22_catchment            73.04       0.00      34.04       0.00      39.00       0.00      39.00        0.62     0.01   0.534
  c_21_catchment            73.04       0.00      34.04       0.00      39.00       0.00      39.00        1.25     0.03   0.534
  c_12_catchment            73.04       0.00      34.04       0.00      39.00       0.00      39.00        1.44     0.03   0.534
  c_20_catchment            73.04       0.00      34.04       0.00      39.00       0.00      39.00        3.90     0.08   0.534
  c_19_catchment            73.04       0.00      34.04       0.00      39.00       0.00      39.00        1.33     0.03   0.534
  c_10_catchment            73.04       0.00      37.96       0.00      35.08       0.00      35.08        2.18     0.03   0.480
  c_16_catchment            73.04       0.00      34.04       0.00      39.00       0.00      39.00       10.30     0.22   0.534
  c_15_catchment            73.04       0.00      34.04       0.00      39.00       0.00      39.00       13.22     0.28   0.534
  c_14_catchment            73.04       0.00      34.04       0.00      39.00       0.00      39.00       13.89     0.30   0.534
  c_129_catchment           83.93       0.00      26.62       0.00      57.31       0.00      57.31        2.87     0.16   0.683
  c_128_catchment           83.93       0.00      27.66       0.00      56.27       0.00      56.27      143.55     5.85   0.670
  c_1285_catchment          83.93       0.00      26.97       0.00      56.97       0.00      56.97        3.30     0.17   0.679
  c_127_catchment           83.93       0.00      26.18       0.00      57.76       0.00      57.76       77.92     5.17   0.688
  c_126_catchment           83.93       0.00      26.51       0.00      57.43       0.00      57.43        9.07     0.54   0.684
  c_125_catchment           83.93       0.00      24.73       0.00      59.22       0.00      59.22        3.14     0.42   0.706
  c_124_catchment           83.93       0.00      23.46       0.00      60.54       0.00      60.54        0.61     0.22   0.721
  c_136_catchment           83.93       0.00      30.75       0.00      53.18       0.00      53.18       26.86     0.58   0.634
  c_135_catchment           83.93       0.00      30.03       0.00      53.91       0.00      53.91       11.86     0.28   0.642
  c_131_catchment           83.93       0.00      30.98       0.00      52.95       0.00      52.95       11.38     0.24   0.631
  c_130_catchment           83.93       0.00      28.87       0.00      55.06       0.00      55.06        2.15     0.06   0.656
  c_134_catchment           83.93       0.00      29.90       0.00      54.04       0.00      54.04        2.86     0.07   0.644
  c_132_catchment           83.93       0.00      28.87       0.00      55.06       0.00      55.06        2.15     0.06   0.656
  c_150_catchment           83.27       0.00      28.78       0.00      54.49       0.00      54.49      111.70     5.51   0.654
  c_123_catchment           83.27       0.00      29.63       0.00      53.64       0.00      53.64       54.44     2.30   0.644
  c_143_catchment           83.27       0.00      33.66       0.00      49.61       0.00      49.61      152.80     3.25   0.596
  c_147_catchment           83.27       0.00      28.28       0.00      55.00       0.00      55.00        2.36     0.13   0.660
  c_160_catchment           83.27       0.00      28.71       0.00      54.56       0.00      54.56        2.73     0.14   0.655
  c_145_catchment           83.27       0.00      26.48       0.00      56.80       0.00      56.80        0.57     0.06   0.682
  c_144_catchment           83.27       0.00      30.01       0.00      53.26       0.00      53.26       12.14     0.48   0.640
  c_142_catchment           83.27       0.00      30.22       0.00      53.06       0.00      53.06       40.75     1.54   0.637
  c_148_catchment           83.27       0.00      28.70       0.00      54.58       0.00      54.58        6.11     0.31   0.655
  c_149_catchment           83.27       0.00      30.24       0.00      53.04       0.00      53.04        9.71     0.37   0.637
  c_151_catchment           83.27       0.00      29.52       0.00      53.75       0.00      53.75       15.80     0.68   0.645
  c_161_catchment           83.27       0.00      30.61       0.00      52.66       0.00      52.66       35.81     1.27   0.632
  c_138_catchment           83.27       0.00      29.84       0.00      53.43       0.00      53.43       15.44     0.63   0.642
  c_139_catchment           83.27       0.00      28.47       0.00      54.80       0.00      54.80        2.52     0.13   0.658
  c_137_catchment           83.27       0.00      26.48       0.00      56.80       0.00      56.80        0.57     0.06   0.682
  c_122_catchment           70.37       0.00      25.28       0.00      45.10       0.00      45.10       23.54     1.66   0.641
  c_121_catchment           70.37       0.00      30.47       0.00      39.90       0.00      39.90        4.11     0.10   0.567
  c_120_catchment           70.37       0.00      27.19       0.00      43.18       0.00      43.18        2.12     0.10   0.614
  c_119_catchment           70.37       0.00      28.02       0.00      42.35       0.00      42.35      166.46     6.54   0.602
  c_100_catchment           70.37       0.00      25.77       0.00      44.61       0.00      44.61        2.99     0.18   0.634
  c_118_catchment           70.37       0.00      25.88       0.00      44.50       0.00      44.50        5.03     0.30   0.632
  c_116_catchment           70.37       0.00      26.85       0.00      43.52       0.00      43.52        5.61     0.28   0.618
  c_114_catchment           70.37       0.00      26.04       0.00      44.33       0.00      44.33        2.70     0.16   0.630
  c_112_catchment           70.37       0.00      24.29       0.00      46.09       0.00      46.09       13.14     1.36   0.655
  c_107_catchment           70.37       0.00      28.52       0.00      41.85       0.00      41.85       32.31     1.14   0.595
  c_107_2_catchment         70.37       0.00      27.33       0.00      43.05       0.00      43.05        3.87     0.18   0.612
  c_106_catchment           70.37       0.00      27.26       0.00      43.11       0.00      43.11        4.87     0.22   0.613
  c_99_catchment            70.37       0.00      28.18       0.00      42.19       0.00      42.19       43.75     1.66   0.600
  c_103_catchment           70.37       0.00      25.65       0.00      44.72       0.00      44.72        1.70     0.11   0.636
  c_98_catchment            70.37       0.00      27.41       0.00      42.97       0.00      42.97       11.26     0.50   0.611
  
  
  ******************
  Node Depth Summary
  ******************
  
  ---------------------------------------------------------------------------------
                                 Average  Maximum  Maximum  Time of Max    Reported
                                   Depth    Depth      HGL   Occurrence   Max Depth
  Node                 Type       Meters   Meters   Meters  days hr:min      Meters
  ---------------------------------------------------------------------------------
  Nod_100              JUNCTION     0.64     2.97    17.45     0  00:00        2.97
  Nod_890              JUNCTION     0.60     2.12    15.05    23  08:36        2.12
  Nod_891              JUNCTION     0.53     2.05    15.05    23  08:37        2.05
  Nod_892              JUNCTION     0.47     1.99    15.05    23  08:38        1.99
  Nod_A*HLCMRZ1135     JUNCTION     0.69     2.21    15.05    23  08:38        2.21
  Nod_103              JUNCTION     0.44     1.02    14.99     9  01:06        1.02
  Nod_104              JUNCTION     0.33     0.84    14.62     9  01:02        0.84
  Nod_105              JUNCTION     0.34     0.85    14.61     9  01:02        0.85
  Nod_106              JUNCTION     0.42     0.92    14.49     9  01:00        0.92
  Nod_107              JUNCTION     0.42     0.91    14.46     9  00:59        0.91
  Nod_108              JUNCTION     0.96     2.95    14.15    23  08:35        2.95
  Nod_109              JUNCTION     0.34     2.62    14.14    23  08:36        2.62
  Nod_110              JUNCTION     0.44     1.57    15.11    23  08:34        1.57
  Nod_111              JUNCTION     0.42     1.62    15.09    23  08:34        1.62
  Nod_112              JUNCTION     0.69     2.21    15.05    23  08:36        2.21
  Nod_113              JUNCTION     0.72     2.24    15.04    23  08:37        2.24
  Nod_114              JUNCTION     0.49     2.25    15.02    23  08:37        2.25
  Nod_115              JUNCTION     0.50     2.29    14.99    23  08:37        2.29
  Nod_116              JUNCTION     0.50     2.31    14.98    23  08:37        2.31
  Nod_117              JUNCTION     0.53     2.57    14.84    23  08:37        2.57
  Nod_118              JUNCTION     0.60     2.80    14.71    23  08:37        2.80
  Nod_119              JUNCTION     0.36     2.70    14.14    23  08:36        2.70
  Nod_120              JUNCTION     0.36     2.77    14.14    23  08:36        2.77
  Nod_121              JUNCTION     0.39     2.88    14.14    23  08:36        2.88
  Nod_122              JUNCTION     0.49     2.99    14.13    23  08:36        2.99
  Nod_123              JUNCTION     0.53     3.04    14.13    23  08:36        3.04
  Nod_124              JUNCTION     0.36     3.09    14.10    23  08:36        3.09
  Nod_126              JUNCTION     0.50     1.27    18.44    22  06:42        1.27
  Nod_127              JUNCTION     0.67     1.43    19.44     8  17:50        1.43
  Nod_128              JUNCTION     0.30     0.82    18.54    22  06:43        0.82
  Nod_129              JUNCTION     0.45     0.91    16.55    22  07:15        0.91
  Nod_130              JUNCTION     0.31     1.70    16.76     0  00:05        1.70
  Nod_131              JUNCTION     0.45     1.81    16.35     0  00:05        1.81
  Nod_132              JUNCTION     0.45     1.36    15.69     0  00:06        1.21
  Nod_133              JUNCTION     0.46     1.36    15.64     0  00:06        1.24
  Nod_134              JUNCTION     0.49     1.30    15.40    23  08:31        1.30
  Nod_135              JUNCTION     0.50     1.32    15.37    23  08:31        1.32
  Nod_136              JUNCTION     0.56     1.38    15.31    23  08:32        1.38
  Nod_222              JUNCTION     1.32     3.49    14.69    23  08:37        3.49
  Nod_233              JUNCTION     0.65     2.88    14.40    23  08:36        2.88
  Nod_244              JUNCTION     0.65     2.90    14.34    23  08:36        2.90
  Nod_266              JUNCTION     0.62     2.91    14.28    23  08:36        2.91
  Nod_277              JUNCTION     0.61     2.95    14.21    23  08:36        2.95
  J1                   JUNCTION     1.94     4.00    19.06     0  03:08        4.00
  J119                 JUNCTION   316.00  21069.22  21069.22    22  05:50    21066.04
  cso_Geldrop          OUTFALL      0.00     0.00     4.62     0  00:00        0.00
  cso_gb_136           OUTFALL      0.00     0.00     1.00     0  00:00        0.00
  cso_RZ               OUTFALL      0.00     0.00    16.07     0  00:00        0.00
  cso_ES_1             OUTFALL      0.00     0.00     0.00     0  00:00        0.00
  cso_AALST            OUTFALL      0.00     0.00     0.00     0  00:00        0.00
  out_ES               OUTFALL      0.00     0.00   -12.00     0  00:00        0.00
  out_RZ               OUTFALL      0.00     0.00     0.00     0  00:00        0.00
  cso_gb127            OUTFALL      0.00     0.00     0.00     0  00:00        0.00
  cso_c_122            OUTFALL      0.00     0.00     0.00     0  00:00        0.00
  cso_c_119_1          OUTFALL      0.00     0.00     0.00     0  00:00        0.00
  cso_c_112            OUTFALL      0.00     0.00     0.00     0  00:00        0.00
  cso_c_99             OUTFALL      0.00     0.00     0.00     0  00:00        0.00
  cso_c_123            OUTFALL      0.00     0.00     0.00     0  00:00        0.00
  cso_c_119_2          OUTFALL      0.00     0.00     0.00     0  00:00        0.00
  cso_c_119_3          OUTFALL      0.00     0.00     0.00     0  00:00        0.00
  c_24_vr_storage_5    STORAGE      0.00     0.00     0.00    22  04:46        0.00
  c_23_vr_storage_7    STORAGE      0.00     0.00     0.00    22  04:45        0.00
  c_22_vr_storage_5    STORAGE      0.00     0.00     0.00    22  04:45        0.00
  c_21_vr_storage_7    STORAGE      0.00     0.00     0.00    22  04:45        0.00
  c_12_vr_storage_8    STORAGE      0.00     0.00     0.00    22  04:49        0.00
  c_20_vr_storage_13   STORAGE      0.00     0.00     0.00    22  04:50        0.00
  c_19_vr_storage_7    STORAGE      0.00     0.00     0.00    22  04:45        0.00
  c_10_vr_storage_10   STORAGE      0.00     0.00     0.00    22  04:50        0.00
  c_16_vr_storage_20   STORAGE      0.00     0.00     0.00    22  04:55        0.00
  c_15_vr_storage_24   STORAGE      0.00     0.00     0.00    22  04:59        0.00
  c_14_vr_storage_24   STORAGE      0.00     0.00     0.00    22  04:59        0.00
  pipe_ES              STORAGE      0.29     2.57     2.57    22  16:25        2.57
  pipe_Geldrop         STORAGE      0.16     2.86    17.92     8  19:45        2.86
  gb_136               STORAGE      0.06     0.90    17.35     8  20:05        0.90
  c_129_vr_storage_5   STORAGE      0.00     0.00     0.00     8  17:15        0.00
  c_128_vr_storage_5   STORAGE      0.00     0.00     0.00     8  17:15        0.00
  c_1285_vr_storage_5  STORAGE      0.00     0.00     0.00     8  17:15        0.00
  c_127_vr_storage_5   STORAGE      0.00     0.00     0.00     8  17:17        0.00
  c_126_vr_storage_5   STORAGE      0.00     0.00     0.00     8  17:15        0.00
  c_125_vr_storage_5   STORAGE      0.00     0.00     0.00     8  17:10        0.00
  c_124_storage        STORAGE      0.01     0.02    14.24    30  22:00        0.02
  c_136_vr_storage_5   STORAGE      0.00     0.00     0.00     8  18:20        0.00
  c_135_vr_storage_5   STORAGE      0.00     0.00     0.00    11  09:55        0.00
  c_131_vr_storage_5   STORAGE      0.00     0.00     0.00     8  18:16        0.00
  c_130_vr_storage_5   STORAGE      0.00     0.00     0.00     8  17:15        0.00
  c_134_vr_storage_5   STORAGE      0.00     0.00     0.00     8  18:15        0.00
  c_132_vr_storage_5   STORAGE      0.00     0.00     0.00     8  17:15        0.00
  Aalst_gemaal         STORAGE      0.30     2.49     2.49    22  17:40        2.49
  pre_ontvangstkelder  STORAGE      4.90    24.58    14.08    23  08:36       24.58
  c_150_vr_storage_57  STORAGE      0.00     0.01     0.01    22  05:05        0.01
  c_123_vr_storage_40  STORAGE      0.00     0.00     0.00    22  04:56        0.00
  c_143_vr_storage_70  STORAGE      0.00     0.03     0.03    22  05:45        0.03
  c_147_vr_storage_4   STORAGE      0.00     0.00     0.00    22  04:35        0.00
  c_160_vr_storage_8   STORAGE      0.00     0.00     0.00     8  17:10        0.00
  c_145_vr_storage_4   STORAGE      0.00     0.00     0.00     8  17:05        0.00
  c_144_vr_storage_19  STORAGE      0.00     0.00     0.00    22  04:45        0.00
  c_142_vr_storage_35  STORAGE      0.00     0.00     0.00    22  04:55        0.00
  c_148_vr_storage_12  STORAGE      0.00     0.00     0.00    22  04:38        0.00
  c_149_vr_storage_17  STORAGE      0.00     0.00     0.00    22  04:45        0.00
  c_151_vr_storage_22  STORAGE      0.00     0.00     0.00    22  04:45        0.00
  c_161_vr_storage_32  STORAGE      0.00     0.00     0.00    22  04:55        0.00
  c_138_vr_storage_22  STORAGE      0.00     0.00     0.00    22  04:45        0.00
  c_139_vr_storage_8   STORAGE      0.00     0.00     0.00    22  04:37        0.00
  c_137_vr_storage_4   STORAGE      0.00     0.00     0.00     8  17:05        0.00
  c_122_vr_storage_29  STORAGE      0.00     0.00     0.00    22  04:35        0.00
  c_121_vr_storage_12  STORAGE      0.00     0.00     0.00    22  04:40        0.00
  c_120_vr_storage_8   STORAGE      0.00     0.00     0.00    22  04:34        0.00
  c_119_vr_storage_80  STORAGE      0.00     0.02     0.02    22  05:25        0.02
  c_100_vr_storage_10  STORAGE      0.00     0.00     0.00    22  04:30        0.00
  c_118_vr_storage_13  STORAGE      0.00     0.00     0.00    22  04:31        0.00
  c_116_vr_storage_15  STORAGE      0.00     0.00     0.00    22  04:37        0.00
  c_114_vr_storage_10  STORAGE      0.00     0.00     0.00    22  04:30        0.00
  c_112_vr_storage_21  STORAGE      0.00     0.00     0.00    22  04:25        0.00
  c_107_vr_storage_36  STORAGE      0.00     0.00     0.00    22  04:55        0.00
  c_107_2_vr_storage_12 STORAGE      0.00     0.00     0.00    22  04:35        0.00
  c_106_vr_storage_13  STORAGE      0.00     0.00     0.00    22  04:35        0.00
  c_99_vr_storage_41   STORAGE      0.00     0.00     0.00    22  04:55        0.00
  c_103_vr_storage_8   STORAGE      0.00     0.00     0.00    22  04:29        0.00
  c_98_vr_storage_20   STORAGE      0.00     0.00     0.00    22  04:39        0.00
  gb127                STORAGE      0.04     0.94     0.94     8  18:20        0.94
  c_123                STORAGE      0.33     9.77     9.77     8  21:55        9.77
  c_122                STORAGE      1.03     6.36     6.36     8  21:59        6.36
  c_112                STORAGE      0.06     1.73     1.73    22  04:55        1.73
  c_99                 STORAGE      0.04     3.95     3.95    22  06:40        3.95
  c_119_1              STORAGE      0.23     5.07     5.07    22  06:10        5.07
  c_119_2              STORAGE      0.16     7.02     7.02     8  21:30        7.02
  c_119_3              STORAGE      0.19     8.46     8.46     8  22:20        8.46
  
  
  *******************
  Node Inflow Summary
  *******************
  
  -------------------------------------------------------------------------------------------------
                                  Maximum  Maximum                  Lateral       Total        Flow
                                  Lateral    Total  Time of Max      Inflow      Inflow     Balance
                                   Inflow   Inflow   Occurrence      Volume      Volume       Error
  Node                 Type           CMS      CMS  days hr:min    10^6 ltr    10^6 ltr     Percent
  -------------------------------------------------------------------------------------------------
  Nod_100              JUNCTION     0.000   10.019     0  00:00           0         378       0.000
  Nod_890              JUNCTION     0.000    0.725     0  00:31           0        24.1       0.944
  Nod_891              JUNCTION     0.000    0.442     0  00:32           0        12.7       0.869
  Nod_892              JUNCTION     0.000    0.263     0  00:30           0        5.13       0.869
  Nod_A*HLCMRZ1135     JUNCTION     0.000    0.317     0  00:00           0        1.23       3.110
  Nod_103              JUNCTION     0.000    0.817     0  00:05           0         375       0.016
  Nod_104              JUNCTION     0.000    0.593     9  02:04           0         376       0.006
  Nod_105              JUNCTION     0.000    0.552     9  02:17           0         364      -0.011
  Nod_106              JUNCTION     0.000    0.554     9  02:12           0         364       0.000
  Nod_107              JUNCTION     0.000    0.559     9  02:09           0         364       0.327
  Nod_108              JUNCTION     0.000    0.577     9  02:02           0         363      -0.221
  Nod_109              JUNCTION     0.000    0.545     9  02:35           0         363      -0.076
  Nod_110              JUNCTION     0.000    2.500     8  23:22           0    2.02e+03      -0.004
  Nod_111              JUNCTION     0.000    2.500    22  09:02           0    2.02e+03       0.018
  Nod_112              JUNCTION     0.000    2.500    22  09:01           0    2.04e+03       0.008
  Nod_113              JUNCTION     0.000    2.499    22  08:55           0    2.02e+03       0.010
  Nod_114              JUNCTION     0.000    2.498    22  08:51           0    2.02e+03      -0.002
  Nod_115              JUNCTION     0.000    2.539    23  10:05           0    2.02e+03       0.001
  Nod_116              JUNCTION     0.000    2.539    23  10:05           0    2.02e+03       0.004
  Nod_117              JUNCTION     0.000    2.542    23  10:07           0    2.02e+03       0.017
  Nod_118              JUNCTION     0.000    4.399    22  06:30           0    2.21e+03       0.020
  Nod_119              JUNCTION     0.000    0.981     0  00:01           0         364      -0.005
  Nod_120              JUNCTION     0.000    0.691     0  00:02           0         364      -0.007
  Nod_121              JUNCTION     0.000    0.591    22  08:14           0         364      -0.007
  Nod_122              JUNCTION     0.000    1.117    11  10:49           0         364       0.003
  Nod_123              JUNCTION     0.000    3.547     8  20:56           0    2.38e+03       0.001
  Nod_124              JUNCTION     0.000    5.279    22  08:20           0    2.38e+03       0.000
  Nod_126              JUNCTION     0.000    2.100    22  06:57           0    1.77e+03      -0.029
  Nod_127              JUNCTION     0.000    2.100     0  00:05           0    1.77e+03       0.009
  Nod_128              JUNCTION     0.000    2.116    22  05:12           0    1.77e+03      -0.028
  Nod_129              JUNCTION     0.000    3.395     0  00:04           0    1.77e+03      -0.020
  Nod_130              JUNCTION     0.000   10.805     0  00:00           0    2.02e+03       0.001
  Nod_131              JUNCTION     0.000    9.744     0  00:01           0    2.02e+03       0.003
  Nod_132              JUNCTION     0.000    7.133     0  00:05           0    2.02e+03       0.002
  Nod_133              JUNCTION     0.000    5.318     0  00:05           0    2.02e+03       0.002
  Nod_134              JUNCTION     0.000    4.520     0  00:06           0    2.02e+03       0.003
  Nod_135              JUNCTION     0.000    3.567     0  00:07           0    2.02e+03       0.003
  Nod_136              JUNCTION     0.000    3.269     0  00:09           0    2.02e+03       0.040
  Nod_222              JUNCTION     0.000    5.869    22  06:39           0    2.21e+03      -0.006
  Nod_233              JUNCTION     0.000    2.721    22  07:02           0    2.02e+03      -0.013
  Nod_244              JUNCTION     0.000    2.542    23  10:07           0    2.02e+03       0.001
  Nod_266              JUNCTION     0.000    2.542    23  10:06           0    2.02e+03       0.002
  Nod_277              JUNCTION     0.000    2.542    23  10:06           0    2.02e+03       0.003
  J1                   JUNCTION     0.000    0.800     8  17:10           0         490      -1.431
  J119                 JUNCTION     0.000    7.014    22  05:45           0         259      -3.359
  cso_Geldrop          OUTFALL      0.000    2.548     8  19:45           0        15.6       0.000
  cso_gb_136           OUTFALL      0.000    0.744     8  20:05           0        6.69       0.000
  cso_RZ               OUTFALL      0.000    0.000     0  00:00           0           0       0.000 ltr
  cso_ES_1             OUTFALL      0.000    2.152    22  16:25           0        12.3       0.000
  cso_AALST            OUTFALL      0.000    1.526    22  17:40           0        10.7       0.000
  out_ES               OUTFALL      0.000    3.888     8  19:52           0    2.57e+03       0.000
  out_RZ               OUTFALL      0.000    3.025    23  08:36           0    2.38e+03       0.000
  cso_gb127            OUTFALL      0.000    2.617     8  18:20           0        33.5       0.000
  cso_c_122            OUTFALL      0.000    0.000     0  00:00           0           0       0.000 ltr
  cso_c_119_1          OUTFALL      0.000    2.114    22  06:10           0        22.3       0.000
  cso_c_112            OUTFALL      0.000    0.725    22  04:55           0        2.56       0.000
  cso_c_99             OUTFALL      0.000    0.000     0  00:00           0           0       0.000 ltr
  cso_c_123            OUTFALL      0.000    0.000     0  00:00           0           0       0.000 ltr
  cso_c_119_2          OUTFALL      0.000    0.275     8  21:30           0       0.409       0.000
  cso_c_119_3          OUTFALL      0.000    0.000     0  00:00           0           0       0.000 ltr
  c_24_vr_storage_5    STORAGE     18.744   19.565    22  04:45    2.52e+03    2.59e+03      -0.000
  c_23_vr_storage_7    STORAGE      0.026    0.026    22  04:45         3.9         3.9      -0.000
  c_22_vr_storage_5    STORAGE      0.013    0.013    22  04:45       0.624       0.624      -0.000
  c_21_vr_storage_7    STORAGE      0.027    0.027    22  04:45        3.82        3.82      -0.000
  c_12_vr_storage_8    STORAGE      0.032    0.032    22  04:45        5.71        5.71      -0.000
  c_20_vr_storage_13   STORAGE      0.084    0.084    22  04:45         3.9         3.9      -0.000
  c_19_vr_storage_7    STORAGE      0.029    0.029    22  04:45        3.38        3.38      -0.000
  c_10_vr_storage_10   STORAGE      0.029    0.029    22  04:50        2.18        2.18      -0.000
  c_16_vr_storage_20   STORAGE      0.221    0.221    22  04:45        10.3        10.3      -0.000
  c_15_vr_storage_24   STORAGE      0.285    0.285    22  04:45        16.2        16.2      -0.000
  c_14_vr_storage_24   STORAGE      0.298    0.298    22  04:45        13.9        13.9      -0.000
  pipe_ES              STORAGE      0.000   19.447    22  04:45           0    2.59e+03       0.000
  pipe_Geldrop         STORAGE      0.000    6.534     8  17:15           0         506      -0.000
  gb_136               STORAGE      0.000    1.283     8  18:20           0         137      -0.000
  c_129_vr_storage_5   STORAGE      0.163    0.163     8  17:15        2.87        2.87      -0.000
  c_128_vr_storage_5   STORAGE      5.933    6.580     8  17:15         355         506      -0.000
  c_1285_vr_storage_5  STORAGE      0.168    0.168     8  17:15        4.54        4.54      -0.000
  c_127_vr_storage_5   STORAGE      5.178    6.159     8  17:15        99.3         176       0.000
  c_126_vr_storage_5   STORAGE      0.561    0.981     8  17:15        73.1          77      -0.000
  c_125_vr_storage_5   STORAGE      0.424    0.424     8  17:10        3.97        3.97      -0.000
  c_124_storage        STORAGE      0.224    0.224     8  17:10        11.9        24.2       0.011
  c_136_vr_storage_5   STORAGE      0.600    1.311     8  18:15        84.2         137       0.000
  c_135_vr_storage_5   STORAGE      0.285    0.285     8  18:15        20.1        20.1      -0.000
  c_131_vr_storage_5   STORAGE      0.240    0.300     8  18:15        19.2        23.8      -0.000
  c_130_vr_storage_5   STORAGE      0.063    0.063     8  17:15        4.53        4.53      -0.000
  c_134_vr_storage_5   STORAGE      0.070    0.070     8  18:15        4.63        4.63      -0.000
  c_132_vr_storage_5   STORAGE      0.062    0.062     8  17:15        3.89        3.89      -0.000
  Aalst_gemaal         STORAGE      0.000   14.303    22  05:55           0    1.78e+03      -0.381
  pre_ontvangstkelder  STORAGE      0.000    6.203    22  08:10           0    2.38e+03      -0.002
  c_150_vr_storage_57  STORAGE      5.523    5.523    22  04:35         157         157      -0.000
  c_123_vr_storage_40  STORAGE      2.308    2.308    22  04:35        79.6        79.6      -0.000
  c_143_vr_storage_70  STORAGE      3.301    8.381    22  04:55         376         704       0.000
  c_147_vr_storage_4   STORAGE      0.130    0.130     8  17:05        2.36        2.36      -0.000
  c_160_vr_storage_8   STORAGE      0.188    0.188     8  17:05         139         139      -0.000
  c_145_vr_storage_4   STORAGE      0.059    0.059     8  17:05        2.36        2.36      -0.000
  c_144_vr_storage_19  STORAGE      0.480    0.480    22  04:35        16.6        16.6      -0.000
  c_142_vr_storage_35  STORAGE      1.550    1.550    22  04:35        62.4        62.4      -0.000
  c_148_vr_storage_12  STORAGE      0.306    0.306    22  04:35        8.52        8.52      -0.000
  c_149_vr_storage_17  STORAGE      0.367    0.367    22  04:35        9.71        9.71      -0.000
  c_151_vr_storage_22  STORAGE      0.683    0.683    22  04:35        17.6        17.6      -0.000
  c_161_vr_storage_32  STORAGE      1.268    1.268    22  04:40        35.8        35.8      -0.000
  c_138_vr_storage_22  STORAGE      0.630    0.799    22  04:35        25.5        33.2      -0.000
  c_139_vr_storage_8   STORAGE      0.131    0.131    22  04:35        2.52        2.52      -0.000
  c_137_vr_storage_4   STORAGE      0.060    0.060     8  17:05        5.15        5.15      -0.000
  c_122_vr_storage_29  STORAGE      1.667    1.667     8  17:00        36.5        36.5      -0.000
  c_121_vr_storage_12  STORAGE      0.105    0.204    22  04:35        25.5        30.8       0.000
  c_120_vr_storage_8   STORAGE      0.099    0.099    22  04:30         5.3         5.3      -0.000
  c_119_vr_storage_80  STORAGE      6.556    7.039    22  04:30         249         259      -0.000
  c_100_vr_storage_10  STORAGE      0.185    0.185    22  04:25        4.76        4.76      -0.000
  c_118_vr_storage_13  STORAGE      0.304    0.304    22  04:30        5.03        5.03      -0.000
  c_116_vr_storage_15  STORAGE      0.282    0.439    22  04:30        9.23        13.8      -0.000
  c_114_vr_storage_10  STORAGE      0.159    0.159    22  04:30        4.61        4.61      -0.000
  c_112_vr_storage_21  STORAGE      1.366    1.366     8  17:00        17.9        17.9      -0.000
  c_107_vr_storage_36  STORAGE      1.264    1.646    22  04:35         367         408       0.000
  c_107_2_vr_storage_12 STORAGE      0.176    0.176    22  04:30        4.62        4.62      -0.000
  c_106_vr_storage_13  STORAGE      0.235    0.235    22  04:30        36.9        36.9      -0.000
  c_99_vr_storage_41   STORAGE      1.665    1.773    22  04:30          63        66.3      -0.000
  c_103_vr_storage_8   STORAGE      0.108    0.108    22  04:25        3.36        3.36      -0.000
  c_98_vr_storage_20   STORAGE      0.504    0.504    22  04:30        18.6        18.6      -0.000
  gb127                STORAGE      0.000    5.682     8  17:15           0         176      -0.000
  c_123                STORAGE      0.000    2.307    22  05:10           0        79.6      -0.001
  c_122                STORAGE      0.000    1.666     8  17:25           0        36.5      -0.000
  c_112                STORAGE      0.000    1.366     8  17:15           0        17.9      -0.001
  c_99                 STORAGE      0.000    1.772    22  05:05           0        66.3      -0.002
  c_119_1              STORAGE      0.000   10.000     0  00:00           0         107      -0.001
  c_119_2              STORAGE      0.000   10.000     0  00:00           0        75.6      -0.001
  c_119_3              STORAGE      0.000   10.000     0  00:00           0        85.9      -0.001
  
  
  **********************
  Node Surcharge Summary
  **********************
  
  Surcharging occurs when water rises above the top of the highest conduit.
  ---------------------------------------------------------------------
                                               Max. Height   Min. Depth
                                   Hours       Above Crown    Below Rim
  Node                 Type      Surcharged         Meters       Meters
  ---------------------------------------------------------------------
  Nod_100              JUNCTION       71.08          1.750        0.000
  Nod_890              JUNCTION        2.32          0.020        0.880
  Nod_108              JUNCTION        8.99          0.075        6.855
  Nod_109              JUNCTION       60.14          0.819       25.861
  Nod_114              JUNCTION       16.37          0.145        5.985
  Nod_115              JUNCTION       41.05          0.492        6.008
  Nod_116              JUNCTION       42.09          0.510        6.020
  Nod_117              JUNCTION       54.90          0.768        6.162
  Nod_118              JUNCTION       61.37          0.908        6.292
  Nod_119              JUNCTION       63.49          0.898       25.862
  Nod_120              JUNCTION       66.34          0.967       25.863
  Nod_121              JUNCTION       70.59          1.076       25.864
  Nod_122              JUNCTION       75.23          1.194       25.866
  Nod_123              JUNCTION       76.81          1.244       25.866
  Nod_124              JUNCTION       78.65          1.290       25.900
  Nod_222              JUNCTION       66.06          1.037        6.313
  Nod_233              JUNCTION       69.90          1.081       25.599
  Nod_244              JUNCTION       70.86          1.101       25.659
  Nod_266              JUNCTION       71.30          1.105       25.725
  Nod_277              JUNCTION       73.42          1.151       25.789
  J1                   JUNCTION      744.00          4.000        0.000
  J119                 JUNCTION      744.00      21069.216    99978929.784
  
  
  *********************
  Node Flooding Summary
  *********************
  
  Flooding refers to all water that overflows a node, whether it ponds or not.
  --------------------------------------------------------------------------
                                                             Total   Maximum
                                 Maximum   Time of Max       Flood    Ponded
                        Hours       Rate    Occurrence      Volume     Depth
  Node                 Flooded       CMS   days hr:min    10^6 ltr    Meters
  --------------------------------------------------------------------------
  Nod_100                 0.15     9.992      0  00:00       2.791     0.000
  J1                     87.89     0.662      8  17:10       1.496     0.000
  
  
  **********************
  Storage Volume Summary
  **********************
  
  ------------------------------------------------------------------------------------------------
                         Average    Avg   Evap  Exfil     Maximum    Max    Time of Max    Maximum
                          Volume   Pcnt   Pcnt   Pcnt      Volume   Pcnt     Occurrence    Outflow
  Storage Unit           1000 m³   Full   Loss   Loss     1000 m³   Full    days hr:min        CMS
  ------------------------------------------------------------------------------------------------
  c_24_vr_storage_5        0.170    0.0    0.0    0.0       2.979    0.0      22  04:46     19.447
  c_23_vr_storage_7        0.000    0.0    0.0    0.0       0.004    0.0      22  04:45      0.026
  c_22_vr_storage_5        0.000    0.0    0.0    0.0       0.002    0.0      22  04:45      0.013
  c_21_vr_storage_7        0.000    0.0    0.0    0.0       0.004    0.0      22  04:45      0.027
  c_12_vr_storage_8        0.001    0.0    0.0    0.0       0.014    0.0      22  04:49      0.032
  c_20_vr_storage_13       0.001    0.0    0.0    0.0       0.062    0.0      22  04:50      0.084
  c_19_vr_storage_7        0.000    0.0    0.0    0.0       0.004    0.0      22  04:45      0.029
  c_10_vr_storage_10       0.000    0.0    0.0    0.0       0.013    0.0      22  04:50      0.029
  c_16_vr_storage_20       0.004    0.0    0.0    0.0       0.229    0.0      22  04:55      0.221
  c_15_vr_storage_24       0.008    0.0    0.0    0.0       0.375    0.0      22  04:59      0.285
  c_14_vr_storage_24       0.007    0.0    0.0    0.0       0.393    0.0      22  04:59      0.298
  pipe_ES                 19.287    9.7    0.0    0.0     169.522   85.6      22  16:25      6.040
  pipe_Geldrop             1.650    3.3    0.0    0.0      28.567   57.1       8  19:45      3.348
  gb_136                   0.570    3.8    0.0    0.0       8.969   59.8       8  20:05      0.935
  c_129_vr_storage_5       0.000    0.0    0.0    0.0       0.020    0.0       8  17:15      0.163
  c_128_vr_storage_5       0.048    0.0    0.0    0.0       0.931    0.0       8  17:15      6.534
  c_1285_vr_storage_5      0.000    0.0    0.0    0.0       0.021    0.0       8  17:15      0.168
  c_127_vr_storage_5       0.006    0.0    0.0    0.0       0.832    0.0       8  17:17      5.682
  c_126_vr_storage_5       0.001    0.0    0.0    0.0       0.193    0.0       8  17:15      0.981
  c_125_vr_storage_5       0.000    0.0    0.0    0.0       0.053    0.0       8  17:10      0.420
  c_124_storage           12.037    0.1    0.0    0.0      22.766    0.2      30  22:00      0.002
  c_136_vr_storage_5       0.008    0.0    0.0    0.0       0.285    0.0       8  18:20      1.283
  c_135_vr_storage_5       0.001    0.0    0.0    0.0       0.037    0.0      11  09:55      0.285
  c_131_vr_storage_5       0.002    0.0    0.0    0.0       0.049    0.0       8  18:16      0.297
  c_130_vr_storage_5       0.000    0.0    0.0    0.0       0.008    0.0       8  17:15      0.062
  c_134_vr_storage_5       0.000    0.0    0.0    0.0       0.009    0.0       8  18:15      0.070
  c_132_vr_storage_5       0.000    0.0    0.0    0.0       0.008    0.0       8  17:15      0.062
  Aalst_gemaal            10.994    7.6    0.0    0.0     143.732   99.2      22  17:40      3.626
  pre_ontvangstkelder      0.049   16.9    0.0    0.0       0.246   84.7      23  08:36      4.030
  c_150_vr_storage_57      0.146    0.0    0.0    0.0      14.236    0.1      22  05:05      5.522
  c_123_vr_storage_40      0.062    0.0    0.0    0.0       4.666    0.0      22  04:56      2.307
  c_143_vr_storage_70      0.966    0.0    0.0    0.0      29.442    0.3      22  05:45      8.272
  c_147_vr_storage_4       0.000    0.0    0.0    0.0       0.019    0.0      22  04:35      0.129
  c_160_vr_storage_8       0.025    0.0    0.0    0.0       0.082    0.0       8  17:10      0.187
  c_145_vr_storage_4       0.000    0.0    0.0    0.0       0.008    0.0       8  17:05      0.059
  c_144_vr_storage_19      0.006    0.0    0.0    0.0       0.490    0.0      22  04:45      0.479
  c_142_vr_storage_35      0.042    0.0    0.0    0.0       2.802    0.0      22  04:55      1.549
  c_148_vr_storage_12      0.001    0.0    0.0    0.0       0.136    0.0      22  04:38      0.306
  c_149_vr_storage_17      0.003    0.0    0.0    0.0       0.271    0.0      22  04:45      0.367
  c_151_vr_storage_22      0.006    0.0    0.0    0.0       0.695    0.0      22  04:45      0.682
  c_161_vr_storage_32      0.021    0.0    0.0    0.0       1.977    0.0      22  04:55      1.268
  c_138_vr_storage_22      0.012    0.0    0.0    0.0       0.837    0.0      22  04:45      0.794
  c_139_vr_storage_8       0.000    0.0    0.0    0.0       0.058    0.0      22  04:37      0.131
  c_137_vr_storage_4       0.000    0.0    0.0    0.0       0.008    0.0       8  17:05      0.060
  c_122_vr_storage_29      0.020    0.0    0.0    0.0       2.523    0.0      22  04:35      1.666
  c_121_vr_storage_12      0.002    0.0    0.0    0.0       0.101    0.0      22  04:40      0.202
  c_120_vr_storage_8       0.001    0.0    0.0    0.0       0.043    0.0      22  04:34      0.099
  c_119_vr_storage_80      0.415    0.0    0.0    0.0      24.263    0.2      22  05:25      7.014
  c_100_vr_storage_10      0.001    0.0    0.0    0.0       0.082    0.0      22  04:30      0.185
  c_118_vr_storage_13      0.001    0.0    0.0    0.0       0.224    0.0      22  04:31      0.304
  c_116_vr_storage_15      0.004    0.0    0.0    0.0       0.340    0.0      22  04:37      0.435
  c_114_vr_storage_10      0.001    0.0    0.0    0.0       0.070    0.0      22  04:30      0.159
  c_112_vr_storage_21      0.006    0.0    0.0    0.0       1.202    0.0      22  04:25      1.366
  c_107_vr_storage_36      0.043    0.0    0.0    0.0       2.751    0.0      22  04:55      1.624
  c_107_2_vr_storage_12     0.001    0.0    0.0    0.0       0.077    0.0      22  04:35      0.176
  c_106_vr_storage_13      0.002    0.0    0.0    0.0       0.162    0.0      22  04:35      0.235
  c_99_vr_storage_41       0.051    0.0    0.0    0.0       3.544    0.0      22  04:55      1.772
  c_103_vr_storage_8       0.001    0.0    0.0    0.0       0.048    0.0      22  04:29      0.108
  c_98_vr_storage_20       0.007    0.0    0.0    0.0       0.503    0.0      22  04:39      0.504
  gb127                    0.384    2.1    0.0    0.0       9.381   50.4       8  18:20      2.933
  c_123                    0.330    1.1    0.0    0.0       9.773   32.6       8  21:55      0.284
  c_122                    1.033   10.3    0.0    0.0       6.357   63.6       8  21:59      0.031
  c_112                    0.055    2.8    0.0    0.0       1.733   86.7      22  04:55      0.786
  c_99                     0.041    0.2    0.0    0.0       3.952   19.8      22  06:40      0.556
  c_119_1                  0.229    2.3    0.0    0.0       5.068   50.7      22  06:10      2.357
  c_119_2                  0.161    1.6    0.0    0.0       7.017   70.2       8  21:30      0.615
  c_119_3                  0.188    0.9    0.0    0.0       8.464   42.3       8  22:20      0.389
  
  
  ***********************
  Outfall Loading Summary
  ***********************
  
  -----------------------------------------------------------
                         Flow       Avg       Max       Total
                         Freq      Flow      Flow      Volume
  Outfall Node           Pcnt       CMS       CMS    10^6 ltr
  -----------------------------------------------------------
  cso_Geldrop            0.95     0.609     2.548      15.581
  cso_gb_136             1.40     0.178     0.744       6.688
  cso_RZ                 0.00     0.000     0.000       0.000
  cso_ES_1               0.41     1.105     2.152      12.250
  cso_AALST              0.54     0.745     1.526      10.686
  out_ES                98.90     0.969     3.888    2566.476
  out_RZ               100.00     0.890     3.025    2382.464
  cso_gb127              1.49     0.841     2.617      33.476
  cso_c_122              0.00     0.000     0.000       0.000
  cso_c_119_1            1.49     0.560     2.114      22.292
  cso_c_112              0.64     0.149     0.725       2.563
  cso_c_99               0.00     0.000     0.000       0.000
  cso_c_123              0.00     0.000     0.000       0.000
  cso_c_119_2            0.13     0.120     0.275       0.409
  cso_c_119_3            0.00     0.000     0.000       0.000
  -----------------------------------------------------------
  System                13.73     6.166    11.377    5052.886
  
  
  ********************
  Link Flow Summary
  ********************
  
  -----------------------------------------------------------------------------
                                 Maximum  Time of Max   Maximum    Max/    Max/
                                  |Flow|   Occurrence   |Veloc|    Full    Full
  Link                 Type          CMS  days hr:min     m/sec    Flow   Depth
  -----------------------------------------------------------------------------
  Con_158              CONDUIT     0.442     0  00:32      0.90    0.01    0.99
  Con_159              CONDUIT     0.263     0  00:30      0.40    0.04    0.96
  Con_160              CONDUIT     0.317     0  00:00      1.04    0.02    0.97
  Con_101              CONDUIT     0.817     0  00:05      0.91    2.54    0.84
  Con_102              CONDUIT     0.593     9  02:04      0.67    1.30    0.77
  Con_103              CONDUIT     0.554     9  02:12      0.77    0.73    0.73
  Con_104              CONDUIT     0.552     9  02:17      1.51    0.55    0.70
  Con_105              CONDUIT     0.559     9  02:09      0.86    1.19    0.75
  Con_106              CONDUIT     0.577     9  02:02      0.86    0.75    0.87
  Con_107              CONDUIT     0.545     9  02:35      0.77    0.13    1.00
  Con_108              CONDUIT     0.981     0  00:01      1.30    0.22    1.00
  Con_109              CONDUIT     2.500    22  09:02      1.09    0.42    0.76
  Con_110              CONDUIT     2.500    22  09:01      1.21    0.39    0.83
  Con_157              CONDUIT     0.725     0  00:31      0.91    0.02    1.00
  Con_111              CONDUIT     2.499    22  08:55      0.80    0.44    1.00
  Con_112              CONDUIT     2.498    22  08:51      1.01    0.34    0.96
  Con_113              CONDUIT     2.539    23  10:05      1.20    0.59    1.00
  Con_114              CONDUIT     2.539    23  10:05      1.20    0.64    1.00
  Con_115              CONDUIT     2.542    23  10:07      1.17    0.61    1.00
  Con_116              CONDUIT     2.605     8  20:04      1.21    0.63    1.00
  Con_117              CONDUIT     5.869    22  06:39      2.13    0.39    1.00
  Con_118              CONDUIT     0.691     0  00:02      1.08    0.18    1.00
  Con_119              CONDUIT     0.543    11  10:41      0.87    0.11    1.00
  Con_120              CONDUIT     0.638    12  14:57      0.71    0.13    1.00
  Con_121              CONDUIT     1.019    11  10:50      0.64    0.20    1.00
  Con_122              CONDUIT     4.091    11  10:51      3.42    0.88    1.00
  Con_123              CONDUIT     6.203    22  08:10      6.59    0.07    1.00
  Con_125              CONDUIT     2.100    22  06:56      1.01    0.91    0.73
  Con_126              CONDUIT     2.116    22  05:12      1.06    1.45    0.74
  Con_127              CONDUIT     2.100    22  06:57      1.72    0.33    0.70
  Con_128              CONDUIT     2.554     0  00:04      1.56    1.07    0.70
  Con_129              CONDUIT     9.744     0  00:01      4.13    1.27    0.88
  Con_130              CONDUIT     7.133     0  00:05      1.83    1.50    0.72
  Con_140              CONDUIT     5.318     0  00:05      2.11    1.00    0.65
  Con_141              CONDUIT     4.520     0  00:06      1.59    0.95    0.60
  Con_142              CONDUIT     3.567     0  00:07      1.58    0.75    0.62
  Con_143              CONDUIT     3.269     0  00:09      1.74    0.68    0.64
  Con_144              CONDUIT     2.500     8  23:22      1.00    0.67    0.66
  Con_152              CONDUIT     2.721    22  07:02      1.09    1.02    1.00
  Con_153              CONDUIT     2.542    23  10:07      1.08    0.89    1.00
  Con_154              CONDUIT     2.542    23  10:06      1.14    0.99    1.00
  Con_155              CONDUIT     2.542    23  10:06      1.10    0.78    1.00
  Con_156              CONDUIT     2.549    22  08:16      1.37    0.69    1.00
  eeneind_out          CONDUIT     0.049    23  08:30      1.80    0.53    0.55
  P_c_24_d_5           PUMP       19.447    22  04:45              1.94
  P_c_23_d_7           PUMP        0.026    22  04:45              0.00
  P_c_22_d_5           PUMP        0.013    22  04:45              0.00
  P_c_21_d_7           PUMP        0.027    22  04:45              0.00
  P_c_12_d_8           PUMP        0.032    22  04:50              0.00
  P_c_20_d_13          PUMP        0.084    22  04:55              0.01
  P_c_19_d_7           PUMP        0.029    22  04:45              0.00
  P_c_10_d_10          PUMP        0.029    22  04:55              0.00
  P_c_16_d_20          PUMP        0.221    22  05:00              0.02
  P_c_15_d_24          PUMP        0.285    22  05:05              0.03
  P_c_14_d_24          PUMP        0.298    22  05:05              0.03
  P_c_129_d_5          PUMP        0.163     8  17:15              0.02
  P_c_128_d_5          PUMP        6.534     8  17:15              0.65
  P_c_1285_d_5         PUMP        0.168     8  17:15              0.02
  P_c_127_d_5          PUMP        5.682     8  17:15              0.57
  P_c_126_d_5          PUMP        0.981     8  17:15              0.10
  P_c_125_d_5          PUMP        0.420     8  17:10              0.04
  P_c_136_d_5          PUMP        1.283     8  18:20              0.13
  P_c_135_d_5          PUMP        0.285     8  18:15              0.03
  P_c_131_d_5          PUMP        0.297     8  18:15              0.03
  P_c_130_d_5          PUMP        0.062     8  17:15              0.01
  P_c_134_d_5          PUMP        0.070     8  18:15              0.01
  P_c_132_d_5          PUMP        0.062     8  17:15              0.01
  Con_1119.1           PUMP        0.191     8  17:10              1.00
  P_riool_zuid_out     PUMP        3.025    23  08:36              0.64
  P_eindhoven_out      PUMP        3.888     8  19:52              1.00
  P_c_150_d_57         PUMP        5.522    22  05:25              0.55
  P_c_123_d_40         PUMP        2.307    22  05:10              0.23
  P_c_143_d_70         PUMP        8.272    22  06:05              0.83
  P_c_147_d_4          PUMP        0.129     8  17:05              0.01
  P_c_160_d_8          PUMP        0.187     8  17:10              0.02
  P_c_145_d_4          PUMP        0.059     8  17:05              0.01
  P_c_144_d_19         PUMP        0.479    22  04:50              0.05
  P_c_142_d_35         PUMP        1.549    22  05:05              0.15
  P_c_148_d_12         PUMP        0.306    22  04:40              0.03
  P_c_149_d_17         PUMP        0.367    22  04:50              0.04
  P_c_151_d_22         PUMP        0.682    22  04:50              0.07
  P_c_161_d_32         PUMP        1.268    22  05:05              0.13
  P_c_138_d_22         PUMP        0.794    22  04:55              0.08
  P_c_139_d_8          PUMP        0.131    22  04:40              0.01
  P_c_137_d_4          PUMP        0.060     8  17:05              0.01
  P_c_122_d_29         PUMP        1.666     8  17:25              0.17
  P_c_121_d_12         PUMP        0.202    22  04:45              0.02
  P_c_120_d_8          PUMP        0.099    22  04:35              0.01
  P_c_119_d_80         PUMP        7.014    22  05:45              0.70
  P_c_100_d_10         PUMP        0.185    22  04:30              0.02
  P_c_118_d_13         PUMP        0.304    22  04:40              0.03
  P_c_116_d_15         PUMP        0.435    22  04:40              0.04
  P_c_114_d_10         PUMP        0.159    22  04:35              0.02
  P_c_112_d_21         PUMP        1.366     8  17:15              0.14
  P_c_107_d_36         PUMP        1.624    22  05:05              0.16
  P_c_107_2_d_12       PUMP        0.176    22  04:35              0.02
  P_c_106_d_13         PUMP        0.235    22  04:40              0.02
  P_c_99_d_41          PUMP        1.772    22  05:05              0.18
  P_c_103_d_8          PUMP        0.108    22  04:30              0.01
  P_c_98_d_20          PUMP        0.504    22  04:45              0.05
  P_aalst_1            PUMP        0.560     0  00:05              1.00
  P_aalst_2            PUMP        0.560     0  00:05              1.00
  P_aalst_3            PUMP        0.490     0  00:05              1.00
  P_aalst_4            PUMP        0.490     0  00:00              1.00
  P_pipe_Geldrop       PUMP        0.800     8  17:10              1.00
  P_gb127              PUMP        0.316     2  10:00              1.00
  P_c_99               PUMP        0.556     8  17:30              1.00
  P_c_112              PUMP        0.061     2  09:20              1.00
  P_c_119_1            PUMP        0.243     0  00:00              1.00
  P_c_122              PUMP        0.031     2  09:30              1.00
  P_c_123              PUMP        0.284     2  10:30              1.00
  P_c_119_2            PUMP        0.340     0  00:00              1.00
  P_c_119_3            PUMP        0.389     0  00:00              1.00
  P_c_119_fr_040       PUMP       10.000     0  00:00              1.00
  P_c_119_fr_028       PUMP       10.000     0  00:00              1.00
  P_c_119_fr_032       PUMP       10.000     0  00:00              1.00
  P_geldrop_split_1    PUMP       10.000     0  00:00              1.00
  P_geldrop_split_2    PUMP       10.000     0  00:00              1.00
  weir_gb_136          WEIR        0.744     8  20:05                      0.03
  Con_A*HLCMRZ1135.1   WEIR        0.000     0  00:00                      0.00
  weir_ES              WEIR        2.152    22  16:25                      0.07
  Aalst_weir           WEIR        1.526    22  17:40                      0.05
  weir_gb127           WEIR        2.617     8  18:20                      0.08
  weir_pipe_Geldrop    WEIR        2.548     8  19:45                      0.08
  weir_c_123           WEIR        0.000     0  00:00                      0.00
  weir_c_99            WEIR        0.000     0  00:00                      0.00
  weir_c_112           WEIR        0.725    22  04:55                      0.03
  weir_c_119_1         WEIR        2.114    22  06:10                      0.07
  weir_c_122           WEIR        0.000     0  00:00                      0.00
  weir_c_119_2         WEIR        0.275     8  21:30                      0.02
  weir_c_119_3         WEIR        0.000     0  00:00                      0.00
  
  
  ***************************
  Flow Classification Summary
  ***************************
  
  -------------------------------------------------------------------------------------
                      Adjusted    ---------- Fraction of Time in Flow Class ---------- 
                       /Actual         Up    Down  Sub   Sup   Up    Down  Norm  Inlet 
  Conduit               Length    Dry  Dry   Dry   Crit  Crit  Crit  Crit  Ltd   Ctrl  
  -------------------------------------------------------------------------------------
  Con_158                 1.00   0.00  0.00  0.00  1.00  0.00  0.00  0.00  0.00  0.00
  Con_159                 1.00   0.00  0.00  0.00  1.00  0.00  0.00  0.00  0.00  0.00
  Con_160                 1.00   0.00  0.00  0.00  1.00  0.00  0.00  0.00  0.00  0.00
  Con_101                 1.00   0.00  0.00  0.00  0.82  0.00  0.00  0.18  0.00  0.00
  Con_102                 1.00   0.00  0.00  0.00  1.00  0.00  0.00  0.00  0.00  0.00
  Con_103                 1.00   0.00  0.00  0.00  1.00  0.00  0.00  0.00  0.40  0.00
  Con_104                 1.00   0.00  0.00  0.00  1.00  0.00  0.00  0.00  0.00  0.00
  Con_105                 1.00   0.00  0.00  0.00  1.00  0.00  0.00  0.00  0.00  0.00
  Con_106                 1.00   0.00  0.00  0.00  0.09  0.00  0.00  0.91  0.03  0.00
  Con_107                 1.00   0.00  0.00  0.00  1.00  0.00  0.00  0.00  0.03  0.00
  Con_108                 1.00   0.00  0.00  0.00  1.00  0.00  0.00  0.00  0.82  0.00
  Con_109                 1.00   0.00  0.00  0.00  1.00  0.00  0.00  0.00  0.00  0.00
  Con_110                 1.00   0.00  0.00  0.00  1.00  0.00  0.00  0.00  0.00  0.00
  Con_157                 1.00   0.00  0.00  0.00  1.00  0.00  0.00  0.00  0.00  0.00
  Con_111                 1.00   0.00  0.00  0.00  1.00  0.00  0.00  0.00  0.00  0.00
  Con_112                 1.00   0.00  0.00  0.00  1.00  0.00  0.00  0.00  0.84  0.00
  Con_113                 1.00   0.00  0.00  0.00  1.00  0.00  0.00  0.00  0.00  0.00
  Con_114                 1.00   0.00  0.00  0.00  1.00  0.00  0.00  0.00  0.00  0.00
  Con_115                 1.00   0.00  0.00  0.00  1.00  0.00  0.00  0.00  0.70  0.00
  Con_116                 1.00   0.00  0.00  0.00  1.00  0.00  0.00  0.00  0.35  0.00
  Con_117                 1.00   0.00  0.00  0.00  1.00  0.00  0.00  0.00  0.12  0.00
  Con_118                 1.00   0.00  0.00  0.00  1.00  0.00  0.00  0.00  0.00  0.00
  Con_119                 1.00   0.00  0.00  0.00  1.00  0.00  0.00  0.00  0.81  0.00
  Con_120                 1.00   0.00  0.00  0.00  1.00  0.00  0.00  0.00  0.25  0.00
  Con_121                 1.00   0.00  0.00  0.00  1.00  0.00  0.00  0.00  0.00  0.00
  Con_122                 1.00   0.00  0.00  0.00  0.13  0.87  0.00  0.00  0.00  0.00
  Con_123                 1.00   0.00  0.00  0.00  0.37  0.32  0.00  0.31  0.56  0.00
  Con_125                 1.00   0.00  0.00  0.00  1.00  0.00  0.00  0.00  0.71  0.00
  Con_126                 1.00   0.00  0.00  0.00  1.00  0.00  0.00  0.00  0.00  0.00
  Con_127                 1.00   0.00  0.00  0.00  1.00  0.00  0.00  0.00  0.84  0.00
  Con_128                 1.00   0.00  0.00  0.00  0.00  0.00  0.00  1.00  0.00  0.00
  Con_129                 1.00   0.00  0.00  0.00  1.00  0.00  0.00  0.00  0.85  0.00
  Con_130                 1.00   0.00  0.00  0.00  1.00  0.00  0.00  0.00  0.02  0.00
  Con_140                 1.00   0.00  0.00  0.00  1.00  0.00  0.00  0.00  0.00  0.00
  Con_141                 1.00   0.00  0.00  0.00  1.00  0.00  0.00  0.00  0.20  0.00
  Con_142                 1.00   0.00  0.00  0.00  1.00  0.00  0.00  0.00  0.00  0.00
  Con_143                 1.00   0.00  0.00  0.00  1.00  0.00  0.00  0.00  0.00  0.00
  Con_144                 1.00   0.00  0.00  0.00  0.75  0.00  0.00  0.25  0.00  0.00
  Con_152                 1.00   0.00  0.00  0.00  1.00  0.00  0.00  0.00  0.16  0.00
  Con_153                 1.00   0.00  0.00  0.00  1.00  0.00  0.00  0.00  0.05  0.00
  Con_154                 1.00   0.00  0.00  0.00  1.00  0.00  0.00  0.00  0.00  0.00
  Con_155                 1.00   0.00  0.00  0.00  1.00  0.00  0.00  0.00  0.00  0.00
  Con_156                 1.00   0.00  0.00  0.00  1.00  0.00  0.00  0.00  0.00  0.00
  eeneind_out             1.00   0.00  0.00  0.00  0.90  0.10  0.00  0.00  0.87  0.00
  
  
  *************************
  Conduit Surcharge Summary
  *************************
  
  ----------------------------------------------------------------------------
                                                           Hours        Hours 
                         --------- Hours Full --------   Above Full   Capacity
  Conduit                Both Ends  Upstream  Dnstream   Normal Flow   Limited
  ----------------------------------------------------------------------------
  Con_158                     0.01      0.01      2.32      0.01         0.01
  Con_160                     0.01      0.01     11.68      0.01         0.01
  Con_101                     0.01     71.08      0.01     76.24         0.01
  Con_102                     0.01      0.01      0.01     71.88         0.01
  Con_105                     0.01      0.01      0.01     70.03         0.01
  Con_106                     0.01      0.01      8.98      0.01         0.01
  Con_107                    45.23     45.23     60.14      0.01         0.01
  Con_108                    60.14     60.14     63.49      0.01         0.01
  Con_157                     2.32      2.32     11.68      0.01         0.01
  Con_111                    11.68     11.68     16.02      0.01         0.01
  Con_112                     0.01      0.01     16.37      0.01         0.01
  Con_113                    38.48     38.48     41.05      0.01         0.01
  Con_114                    41.05     41.05     42.09      0.01         0.01
  Con_115                    42.09     42.09     54.90      0.01         0.01
  Con_116                    54.90     54.90     64.57      0.01         0.01
  Con_117                    61.37     61.37    110.76      0.01         0.01
  Con_118                    63.49     63.49     66.34      0.01         0.01
  Con_119                    66.34     66.34     70.59      0.01         0.01
  Con_120                    70.59     70.59     75.22      0.01         0.01
  Con_121                    75.22     75.22     76.81      0.01         0.01
  Con_122                    76.81     76.81     78.65      0.01         0.01
  Con_123                    78.65     78.65    126.48      0.01         0.01
  Con_126                     0.01      0.01      0.01    115.71         0.01
  Con_128                     0.01      0.01      0.01      0.03         0.01
  Con_129                     0.01      0.01      0.01      0.02         0.01
  Con_130                     0.01      0.01      0.01      0.06         0.01
  Con_152                    66.06     66.06     69.90      0.29         0.01
  Con_153                    69.90     69.90     70.86      0.01         0.01
  Con_154                    70.86     70.86     71.29      0.01         0.01
  Con_155                    71.29     71.29     73.42      0.01         0.01
  Con_156                    73.42     73.42     76.81      0.01         0.01
  eeneind_out                 0.01      0.01    555.79      0.01         0.01
  
  
  ***************
  Pumping Summary
  ***************
  
  ---------------------------------------------------------------------------------------------------------
                                                  Min       Avg       Max     Total     Power    % Time Off
                        Percent   Number of      Flow      Flow      Flow    Volume     Usage    Pump Curve
  Pump                 Utilized   Start-Ups       CMS       CMS       CMS  10^6 ltr     Kw-hr    Low   High
  ---------------------------------------------------------------------------------------------------------
  P_c_24_d_5             100.00           1      0.00      0.97     19.45  2588.677   4281.02    0.0  100.0
  P_c_23_d_7             100.00           1      0.00      0.00      0.03     3.904      0.01    0.0  100.0
  P_c_22_d_5              16.13           8      0.00      0.00      0.01     0.623      0.00    0.0  100.0
  P_c_21_d_7             100.00           1      0.00      0.00      0.03     3.818      0.01    0.0  100.0
  P_c_12_d_8             100.00           1      0.00      0.00      0.03     5.708      0.01    0.0   99.6
  P_c_20_d_13             17.97           6      0.00      0.01      0.08     3.900      0.01    0.0   95.7
  P_c_19_d_7             100.00           1      0.00      0.00      0.03     3.377      0.01    0.0  100.0
  P_c_10_d_10             19.73           6      0.00      0.00      0.03     2.175      0.01    0.0   95.4
  P_c_16_d_20             18.09           6      0.00      0.02      0.22    10.297      0.03    0.0   94.1
  P_c_15_d_24            100.00           1      0.00      0.01      0.28    16.230      0.03    0.0   98.8
  P_c_14_d_24             18.07           6      0.00      0.03      0.30    13.885      0.03    0.0   93.0
  P_c_129_d_5              7.91           8      0.00      0.01      0.16     2.866      0.00    0.0  100.0
  P_c_128_d_5            100.00           1      0.00      0.19      6.53   505.539  21812.44    0.0  100.0
  P_c_1285_d_5           100.00           1      0.00      0.00      0.17     4.536      0.00    0.0   99.9
  P_c_127_d_5            100.00           1      0.00      0.07      5.68   176.312    171.56    0.0    7.1
  P_c_126_d_5            100.00           1      0.00      0.03      0.98    77.050      0.01    0.0   96.3
  P_c_125_d_5            100.00           1      0.00      0.00      0.42     3.969      0.00    0.0   99.6
  P_c_136_d_5            100.00           1      0.00      0.05      1.28   136.559   6212.10    0.0  100.0
  P_c_135_d_5            100.00           1      0.00      0.01      0.28    20.108      0.00    0.0   99.9
  P_c_131_d_5            100.00           1      0.00      0.01      0.30    23.762      0.00    0.0  100.0
  P_c_130_d_5            100.00           1      0.00      0.00      0.06     4.531      0.00    0.0   98.0
  P_c_134_d_5            100.00           1      0.00      0.00      0.07     4.631      0.00    0.0   99.9
  P_c_132_d_5            100.00           1      0.00      0.00      0.06     3.888      0.00    0.0   99.9
  Con_1119.1             100.00           1      0.00      0.05      0.19   129.871    443.45    0.0   11.1
  P_riool_zuid_out       100.00           1      0.00      0.89      3.02  2382.464  66754.17    0.0    0.0
  P_eindhoven_out         98.90           1      0.00      0.97      3.89  2566.477  88055.34    0.0    0.0
  P_c_150_d_57           100.00           1      0.00      0.06      5.52   157.286    496.46    0.0   99.3
  P_c_123_d_40           100.00           1      0.00      0.03      2.31    79.619    683.43    0.0    6.7
  P_c_143_d_70           100.00           1      0.00      0.26      8.27   704.266   1784.33    0.0   58.8
  P_c_147_d_4              8.12           7      0.00      0.01      0.13     2.365      0.07    0.0  100.0
  P_c_160_d_8            100.00           1      0.00      0.05      0.19   139.178      0.54    0.0  100.0
  P_c_145_d_4            100.00           1      0.00      0.00      0.06     2.362      0.02    0.0  100.0
  P_c_144_d_19           100.00           1      0.00      0.01      0.48    16.617      0.44    0.0  100.0
  P_c_142_d_35           100.00           1      0.00      0.02      1.55    62.441      1.48    0.0  100.0
  P_c_148_d_12           100.00           1      0.00      0.00      0.31     8.523      0.21    0.0  100.0
  P_c_149_d_17            11.25           6      0.00      0.03      0.37     9.706      0.33    0.0  100.0
  P_c_151_d_22           100.00           1      0.00      0.01      0.68    17.624      0.56    0.0  100.0
  P_c_161_d_32            11.82           6      0.00      0.11      1.27    35.810      1.23    0.0  100.0
  P_c_138_d_22           100.00           1      0.00      0.01      0.79    33.206      0.70    0.0  100.0
  P_c_139_d_8              8.33           7      0.00      0.01      0.13     2.521      0.00    0.0   99.9
  P_c_137_d_4            100.00           1      0.00      0.00      0.06     5.148      0.00    0.0   98.3
  P_c_122_d_29           100.00           1      0.00      0.01      1.67    36.505    233.56    0.0   33.5
  P_c_121_d_12           100.00           1      0.00      0.01      0.20    30.784     44.92    0.0   99.4
  P_c_120_d_8            100.00           1      0.00      0.00      0.10     5.303      0.00    0.0   98.6
  P_c_119_d_80           100.00           1      0.00      0.10      7.01   259.204 3603909.09    0.0   98.4
  P_c_100_d_10           100.00           1      0.00      0.00      0.18     4.756      0.08    0.0   99.3
  P_c_118_d_13             7.28           7      0.00      0.03      0.30     5.028      0.14    0.0  100.0
  P_c_116_d_15           100.00           1      0.00      0.01      0.44    13.835     32.89    0.0   99.4
  P_c_114_d_10           100.00           1      0.00      0.00      0.16     4.606      0.00    0.0   99.0
  P_c_112_d_21           100.00           1      0.00      0.01      1.37    17.930     36.46    0.0    6.6
  P_c_107_d_36           100.00           1      0.00      0.15      1.62   408.440    469.53    0.0   99.4
  P_c_107_2_d_12         100.00           1      0.00      0.00      0.18     4.624      0.01    0.0  100.0
  P_c_106_d_13           100.00           1      0.00      0.01      0.24    36.875      0.02    0.0   99.6
  P_c_99_d_41            100.00           1      0.00      0.02      1.77    66.316    167.23    0.0    2.2
  P_c_103_d_8            100.00           1      0.00      0.00      0.11     3.360      0.01    0.0   98.5
  P_c_98_d_20            100.00           1      0.00      0.01      0.50    18.596     46.88    0.0   99.4
  P_aalst_1               18.71         267      0.00      0.56      0.56   278.867  13531.54    0.0   97.0
  P_aalst_2               16.10          54      0.00      0.56      0.56   240.948  11614.79    0.0   99.2
  P_aalst_3               15.84          37      0.00      0.49      0.49   207.561   9996.08    0.0   99.5
  P_aalst_4              100.00           1      0.00      0.39      0.49  1045.274  52257.47    0.0   99.4
  P_pipe_Geldrop         100.00           1      0.00      0.18      0.80   489.961   2675.91    0.0    9.7
  P_gb127                100.00           1      0.00      0.05      0.32   142.837     88.47    0.0    7.1
  P_c_99                 100.00           1      0.00      0.02      0.56    66.318    165.90    0.0    2.2
  P_c_112                100.00           1      0.00      0.01      0.06    15.368     30.67    0.0    6.6
  P_c_119_1              100.00           6      0.00      0.03      0.24    84.393    239.83    0.0  100.0
  P_c_122                100.00           1      0.00      0.01      0.03    36.505    172.00    0.0   33.5
  P_c_123                100.00           1      0.00      0.03      0.28    79.620    479.17    0.0    6.7
  P_c_119_2              100.00           4      0.00      0.03      0.34    75.173    287.58    0.0  100.0
  P_c_119_3              100.00           4      0.00      0.03      0.39    85.950    392.36    0.0  100.0
  P_c_119_fr_040         100.00           1      0.00      0.04     10.00   106.677 1440877.68    0.0    1.6
  P_c_119_fr_028         100.00           1      0.00      0.03     10.00    75.574 1008712.23    0.0    1.6
  P_c_119_fr_032         100.00           1      0.00      0.03     10.00    85.941 1152742.99    0.0    1.6
  P_geldrop_split_1      100.00           1      0.00      0.09     10.00   247.782   1625.04    0.0   51.2
  P_geldrop_split_2      100.00           1      0.00      0.09     10.00   247.782   1586.85    0.0    6.5
  

  Analysis begun on:  Wed Apr 30 15:50:27 2025
  Analysis ended on:  Wed Apr 30 15:58:23 2025
  Total elapsed time: 00:07:56