
  EPA STORM WATER MANAGEMENT MODEL - VERSION 5.2 (Build 5.2.4)
  PYSWMM TOOLKIT API - VERSION v1.0 (2023-11-27)
  ------------------------------------------------------------

  WARNING 04: minimum elevation drop used for Conduit geldrop_out_east
  WARNING 02: maximum depth increased for Node gb127
  
  ****************
  Analysis Options
  ****************
  Flow Units ............... CMS
  Process Models:
    Rainfall/Runoff ........ YES
    RDII ................... NO
    Snowmelt ............... NO
    Groundwater ............ NO
    Flow Routing ........... YES
    Ponding Allowed ........ NO
    Water Quality .......... NO
  Infiltration Method ...... HORTON
  Flow Routing Method ...... DYNWAVE
  Surcharge Method ......... EXTRAN
  Starting Date ............ 01/01/2024 00:00:00
  Ending Date .............. 12/31/2024 00:00:00
  Antecedent Dry Days ...... 0.0
  Report Time Step ......... 00:05:00
  Wet Time Step ............ 00:01:00
  Dry Time Step ............ 00:10:00
  Routing Time Step ........ 5.00 sec
  Variable Time Step ....... YES
  Maximum Trials ........... 12
  Number of Threads ........ 2
  Head Tolerance ........... 0.000200 m
  
  
  *********************
  Rainfall File Summary
  *********************
  Station    First        Last         Recording   Periods    Periods    Periods
  ID         Date         Date         Frequency  w/Precip    Missing    Malfunc.
  -------------------------------------------------------------------------------
  ES         01/01/2024   12/31/2024       5 min    105217          0          0

  GE         01/01/2024   12/31/2024       5 min    105217          0          0

  RZ1        01/01/2024   12/31/2024       5 min    105217          0          0

  RZ2        01/01/2024   12/31/2024       5 min    105217          0          0

  
  
  **************************        Volume         Depth
  Runoff Quantity Continuity     hectare-m            mm
  **************************     ---------       -------
  Total Precipitation ......      2619.075       620.825
  Evaporation Loss .........      1141.565       270.596
  Infiltration Loss ........         0.000         0.000
  Surface Runoff ...........      1477.530       350.233
  Final Storage ............         0.002         0.000
  Continuity Error (%) .....        -0.001
  
  
  **************************        Volume        Volume
  Flow Routing Continuity        hectare-m      10^6 ltr
  **************************     ---------     ---------
  Dry Weather Inflow .......      2593.582     25936.092
  Wet Weather Inflow .......      1477.530     14775.452
  Groundwater Inflow .......         0.000         0.000
  RDII Inflow ..............         0.000         0.000
  External Inflow ..........      1141.192     11412.037
  External Outflow .........      5221.214     52212.684
  Flooding Loss ............         0.000         0.000
  Evaporation Loss .........         0.074         0.742
  Exfiltration Loss ........         0.000         0.000
  Initial Stored Volume ....         0.805         8.050
  Final Stored Volume ......         7.775        77.749
  Continuity Error (%) .....        -0.306
  
  
  ***************************
  Time-Step Critical Elements
  ***************************
  None
  
  
  ********************************
  Highest Flow Instability Indexes
  ********************************
  Link P_riool_zuid_out (6)
  Link Con_117 (5)
  Link Con_152 (4)
  Link Con_116 (4)
  Link Con_153 (3)
  
  
  *********************************
  Most Frequent Nonconverging Nodes
  *********************************
  Node cso_Geldrop (3.89%)
  Node cso_gb_136 (3.89%)
  Node cso_RZ (3.89%)
  Node cso_ES_1 (3.89%)
  Node cso_AALST (3.89%)
  
  
  *************************
  Routing Time Step Summary
  *************************
  Minimum Time Step           :     4.50 sec
  Average Time Step           :     5.00 sec
  Maximum Time Step           :     5.00 sec
  % of Time in Steady State   :     0.00
  Average Iterations per Step :     2.45
  % of Steps Not Converging   :     3.89
  Time Step Frequencies       :
      5.000 -  3.155 sec      :   100.00 %
      3.155 -  1.991 sec      :     0.00 %
      1.991 -  1.256 sec      :     0.00 %
      1.256 -  0.792 sec      :     0.00 %
      0.792 -  0.500 sec      :     0.00 %
  
  
  ***************************
  Subcatchment Runoff Summary
  ***************************
  
  ------------------------------------------------------------------------------------------------------------------------------
                            Total      Total      Total      Total     Imperv       Perv      Total       Total     Peak  Runoff
                           Precip      Runon       Evap      Infil     Runoff     Runoff     Runoff      Runoff   Runoff   Coeff
  Subcatchment                 mm         mm         mm         mm         mm         mm         mm    10^6 ltr      CMS
  ------------------------------------------------------------------------------------------------------------------------------
  c_24_catchment           600.20       0.00     276.26       0.00     323.94       0.00     323.94     6215.87    20.17   0.540
  c_23_catchment           600.20       0.00     279.77       0.00     320.43       0.00     320.43        9.61     0.03   0.534
  c_22_catchment           600.20       0.00     279.77       0.00     320.43       0.00     320.43        5.13     0.02   0.534
  c_21_catchment           600.20       0.00     279.77       0.00     320.43       0.00     320.43       10.25     0.03   0.534
  c_12_catchment           600.20       0.00     279.77       0.00     320.43       0.00     320.43       11.86     0.03   0.534
  c_20_catchment           600.20       0.00     279.77       0.00     320.43       0.00     320.43       32.04     0.09   0.534
  c_19_catchment           600.20       0.00     279.77       0.00     320.43       0.00     320.43       10.89     0.03   0.534
  c_10_catchment           600.20       0.00     295.72       0.00     304.15       0.00     304.15       18.86     0.04   0.507
  c_16_catchment           600.20       0.00     279.77       0.00     320.43       0.00     320.43       84.59     0.25   0.534
  c_15_catchment           600.20       0.00     279.77       0.00     320.43       0.00     320.43      108.63     0.32   0.534
  c_14_catchment           600.20       0.00     279.77       0.00     320.43       0.00     320.43      114.07     0.33   0.534
  c_129_catchment          648.29       0.00     256.51       0.00     391.79       0.00     391.79       19.59     0.16   0.604
  c_128_catchment          648.29       0.00     262.46       0.00     385.84       0.00     385.84      984.28     6.53   0.595
  c_1285_catchment         648.29       0.00     258.47       0.00     389.83       0.00     389.83       22.61     0.17   0.601
  c_127_catchment          648.29       0.00     253.95       0.00     394.36       0.00     394.36      531.99     5.17   0.608
  c_126_catchment          648.29       0.00     255.84       0.00     392.47       0.00     392.47       62.01     0.54   0.605
  c_125_catchment          648.29       0.00     245.29       0.00     403.04       0.00     403.04       21.36     0.42   0.622
  c_124_catchment          648.29       0.00     237.02       0.00     411.43       0.00     411.43        4.11     0.22   0.635
  c_136_catchment          648.29       0.00     280.11       0.00     368.18       0.00     368.18      185.93     0.66   0.568
  c_135_catchment          648.29       0.00     275.92       0.00     372.37       0.00     372.37       81.92     0.34   0.574
  c_131_catchment          648.29       0.00     281.47       0.00     366.83       0.00     366.83       78.87     0.27   0.566
  c_130_catchment          648.29       0.00     269.49       0.00     378.81       0.00     378.81       14.77     0.08   0.584
  c_134_catchment          648.29       0.00     275.20       0.00     373.10       0.00     373.10       19.77     0.08   0.576
  c_132_catchment          648.29       0.00     269.49       0.00     378.81       0.00     378.81       14.77     0.08   0.584
  c_150_catchment          654.63       0.00     261.97       0.00     392.67       0.00     392.67      804.97     5.51   0.600
  c_123_catchment          654.63       0.00     266.38       0.00     388.25       0.00     388.25      394.08     2.30   0.593
  c_143_catchment          654.63       0.00     286.77       0.00     367.86       0.00     367.86     1133.01     3.72   0.562
  c_147_catchment          654.63       0.00     259.38       0.00     395.26       0.00     395.26       17.00     0.13   0.604
  c_160_catchment          654.63       0.00     261.60       0.00     393.04       0.00     393.04       19.65     0.14   0.600
  c_145_catchment          654.63       0.00     250.09       0.00     404.56       0.00     404.56        4.05     0.06   0.618
  c_144_catchment          654.63       0.00     268.30       0.00     386.33       0.00     386.33       88.08     0.48   0.590
  c_142_catchment          654.63       0.00     269.33       0.00     385.31       0.00     385.31      295.92     1.54   0.589
  c_148_catchment          654.63       0.00     261.53       0.00     393.11       0.00     393.11       44.03     0.31   0.601
  c_149_catchment          654.63       0.00     269.43       0.00     385.20       0.00     385.20       70.49     0.37   0.588
  c_151_catchment          654.63       0.00     265.81       0.00     388.83       0.00     388.83      114.32     0.68   0.594
  c_161_catchment          654.63       0.00     271.29       0.00     383.34       0.00     383.34      260.67     1.28   0.586
  c_138_catchment          654.63       0.00     267.46       0.00     387.17       0.00     387.17      111.89     0.63   0.591
  c_139_catchment          654.63       0.00     260.36       0.00     394.28       0.00     394.28       18.14     0.13   0.602
  c_137_catchment          654.63       0.00     250.09       0.00     404.56       0.00     404.56        4.05     0.06   0.618
  c_122_catchment          617.78       0.00     243.95       0.00     373.85       0.00     373.85      195.15     1.66   0.605
  c_121_catchment          617.78       0.00     272.33       0.00     345.45       0.00     345.45       35.58     0.11   0.559
  c_120_catchment          617.78       0.00     254.53       0.00     363.26       0.00     363.26       17.80     0.10   0.588
  c_119_catchment          617.78       0.00     259.08       0.00     358.71       0.00     358.71     1409.73     6.54   0.581
  c_100_catchment          617.78       0.00     246.65       0.00     371.14       0.00     371.14       24.87     0.18   0.601
  c_118_catchment          617.78       0.00     247.26       0.00     370.53       0.00     370.53       41.87     0.30   0.600
  c_116_catchment          617.78       0.00     252.64       0.00     365.15       0.00     365.15       47.10     0.28   0.591
  c_114_catchment          617.78       0.00     248.18       0.00     369.62       0.00     369.62       22.55     0.16   0.598
  c_112_catchment          617.78       0.00     238.54       0.00     379.27       0.00     379.27      108.09     1.36   0.614
  c_107_catchment          617.78       0.00     261.82       0.00     355.96       0.00     355.96      274.80     1.14   0.576
  c_107_2_catchment        617.78       0.00     255.25       0.00     362.54       0.00     362.54       32.63     0.18   0.587
  c_106_catchment          617.78       0.00     254.89       0.00     362.89       0.00     362.89       41.01     0.22   0.587
  c_99_catchment           617.78       0.00     259.98       0.00     357.81       0.00     357.81      371.05     1.66   0.579
  c_103_catchment          617.78       0.00     246.02       0.00     371.78       0.00     371.78       14.13     0.11   0.602
  c_98_catchment           617.78       0.00     255.69       0.00     362.10       0.00     362.10       94.87     0.50   0.586
  
  
  ******************
  Node Depth Summary
  ******************
  
  ---------------------------------------------------------------------------------
                                 Average  Maximum  Maximum  Time of Max    Reported
                                   Depth    Depth      HGL   Occurrence   Max Depth
  Node                 Type       Meters   Meters   Meters  days hr:min      Meters
  ---------------------------------------------------------------------------------
  Nod_100              JUNCTION     0.69     2.03    16.51   149  11:29        1.44
  Nod_890              JUNCTION     0.51     2.13    15.06   205  08:33        2.13
  Nod_891              JUNCTION     0.44     2.06    15.06   205  08:33        2.06
  Nod_892              JUNCTION     0.38     2.00    15.06   205  08:34        2.00
  Nod_A*HLCMRZ1135     JUNCTION     0.60     2.22    15.06   205  08:34        2.22
  Nod_103              JUNCTION     0.50     0.99    14.96   205  08:25        0.99
  Nod_104              JUNCTION     0.40     0.81    14.59     1  06:50        0.81
  Nod_105              JUNCTION     0.41     0.82    14.58     1  06:50        0.82
  Nod_106              JUNCTION     0.49     0.89    14.46     1  06:51        0.89
  Nod_107              JUNCTION     0.49     0.88    14.43     1  06:53        0.88
  Nod_108              JUNCTION     0.88     2.93    14.13   205  08:32        2.93
  Nod_109              JUNCTION     0.24     2.61    14.13   205  08:27        2.61
  Nod_110              JUNCTION     0.37     1.58    15.12   205  08:30        1.58
  Nod_111              JUNCTION     0.35     1.63    15.10   205  08:30        1.63
  Nod_112              JUNCTION     0.60     2.22    15.06   205  08:32        2.22
  Nod_113              JUNCTION     0.63     2.25    15.05   205  08:32        2.25
  Nod_114              JUNCTION     0.38     2.25    15.02   205  08:33        2.25
  Nod_115              JUNCTION     0.39     2.30    15.00   205  08:27        2.30
  Nod_116              JUNCTION     0.38     2.32    14.99   205  08:26        2.31
  Nod_117              JUNCTION     0.40     2.57    14.84   205  08:25        2.57
  Nod_118              JUNCTION     0.45     2.80    14.71   205  08:27        2.80
  Nod_119              JUNCTION     0.25     2.69    14.13   205  08:27        2.69
  Nod_120              JUNCTION     0.24     2.76    14.13   205  08:28        2.75
  Nod_121              JUNCTION     0.26     2.87    14.13   205  08:28        2.86
  Nod_122              JUNCTION     0.34     2.98    14.12   205  08:27        2.98
  Nod_123              JUNCTION     0.38     3.03    14.12   205  08:28        3.03
  Nod_124              JUNCTION     0.18     3.08    14.09   205  08:27        3.08
  Nod_126              JUNCTION     0.45     1.27    18.44   204  06:41        1.27
  Nod_127              JUNCTION     0.63     1.43    19.44   190  17:50        1.43
  Nod_128              JUNCTION     0.27     0.82    18.54   204  06:43        0.82
  Nod_129              JUNCTION     0.42     0.91    16.55   204  07:14        0.91
  Nod_130              JUNCTION     0.27     0.82    15.88   205  08:25        0.82
  Nod_131              JUNCTION     0.39     1.17    15.71   205  08:25        1.17
  Nod_132              JUNCTION     0.38     1.22    15.55   205  08:25        1.22
  Nod_133              JUNCTION     0.39     1.24    15.52   205  08:26        1.24
  Nod_134              JUNCTION     0.42     1.31    15.41   205  08:26        1.31
  Nod_135              JUNCTION     0.44     1.33    15.38   205  08:27        1.33
  Nod_136              JUNCTION     0.50     1.38    15.31   205  08:28        1.38
  Nod_222              JUNCTION     1.17     3.49    14.69   205  08:28        3.49
  Nod_233              JUNCTION     0.49     2.88    14.40   205  08:27        2.87
  Nod_244              JUNCTION     0.49     2.89    14.33   205  08:26        2.89
  Nod_266              JUNCTION     0.46     2.90    14.27   205  08:27        2.90
  Nod_277              JUNCTION     0.44     2.94    14.20   205  08:27        2.94
  J1                   JUNCTION     0.27     0.90    15.96   205  08:25        0.90
  J119                 JUNCTION   474.17  21298.96  21298.96   204  05:50    21290.80
  cso_Geldrop          OUTFALL      0.00     0.00     4.62     0  00:00        0.00
  cso_gb_136           OUTFALL      0.00     0.00     1.00     0  00:00        0.00
  cso_RZ               OUTFALL      0.00     0.00    16.07     0  00:00        0.00
  cso_ES_1             OUTFALL      0.00     0.00     0.00     0  00:00        0.00
  cso_AALST            OUTFALL      0.00     0.00     0.00     0  00:00        0.00
  out_ES               OUTFALL      0.00     0.00     0.00     0  00:00        0.00
  out_RZ               OUTFALL      0.00     0.00     0.00     0  00:00        0.00
  cso_gb127            OUTFALL      0.00     0.00     0.00     0  00:00        0.00
  cso_c_122            OUTFALL      0.00     0.00     0.00     0  00:00        0.00
  cso_c_119_1          OUTFALL      0.00     0.00     0.00     0  00:00        0.00
  cso_c_112            OUTFALL      0.00     0.00     0.00     0  00:00        0.00
  cso_c_99             OUTFALL      0.00     0.00     0.00     0  00:00        0.00
  cso_c_123            OUTFALL      0.00     0.00     0.00     0  00:00        0.00
  cso_c_119_2          OUTFALL      0.00     0.00     0.00     0  00:00        0.00
  cso_c_119_3          OUTFALL      0.00     0.00     0.00     0  00:00        0.00
  c_24_vr_storage_5    STORAGE      0.00     0.00     0.00   232  19:30        0.00
  c_23_vr_storage_7    STORAGE      0.00     0.00     0.00   232  19:00        0.00
  c_22_vr_storage_5    STORAGE      0.00     0.00     0.00   232  19:00        0.00
  c_21_vr_storage_7    STORAGE      0.00     0.00     0.00   232  19:00        0.00
  c_12_vr_storage_8    STORAGE      0.00     0.00     0.00   232  19:01        0.00
  c_20_vr_storage_13   STORAGE      0.00     0.00     0.00   232  19:05        0.00
  c_19_vr_storage_7    STORAGE      0.00     0.00     0.00   232  19:00        0.00
  c_10_vr_storage_10   STORAGE      0.00     0.00     0.00   232  19:35        0.00
  c_16_vr_storage_20   STORAGE      0.00     0.00     0.00   232  19:10        0.00
  c_15_vr_storage_24   STORAGE      0.00     0.00     0.00   232  19:15        0.00
  c_14_vr_storage_24   STORAGE      0.00     0.00     0.00   232  19:15        0.00
  pipe_ES              STORAGE      0.24     2.61     2.61   232  21:55        2.61
  pipe_Geldrop         STORAGE      0.03     2.86    17.92   190  19:45        2.86
  gb_136               STORAGE      0.01     0.90    17.35   190  20:05        0.90
  c_129_vr_storage_5   STORAGE      0.00     0.00     0.00   232  18:55        0.00
  c_128_vr_storage_5   STORAGE      0.00     0.00     0.00   232  18:56        0.00
  c_1285_vr_storage_5  STORAGE      0.00     0.00     0.00   232  18:55        0.00
  c_127_vr_storage_5   STORAGE      0.00     0.00     0.00   232  18:56        0.00
  c_126_vr_storage_5   STORAGE      0.00     0.00     0.00   190  17:15        0.00
  c_125_vr_storage_5   STORAGE      0.00     0.00     0.00   190  17:10        0.00
  c_124_storage        STORAGE      0.05     0.06    14.28   357  20:45        0.06
  c_136_vr_storage_5   STORAGE      0.00     0.00     0.00   232  19:05        0.00
  c_135_vr_storage_5   STORAGE      0.00     0.00     0.00   232  19:00        0.00
  c_131_vr_storage_5   STORAGE      0.00     0.00     0.00   232  19:00        0.00
  c_130_vr_storage_5   STORAGE      0.00     0.00     0.00   232  18:56        0.00
  c_134_vr_storage_5   STORAGE      0.00     0.00     0.00   232  18:59        0.00
  c_132_vr_storage_5   STORAGE      0.00     0.00     0.00   232  18:56        0.00
  Aalst_gemaal         STORAGE      0.16     2.50     2.50   233  00:20        2.50
  pre_ontvangstkelder  STORAGE      3.58    24.57    14.07   205  08:34       24.57
  c_150_vr_storage_57  STORAGE      0.00     0.01     0.01   204  05:05        0.01
  c_123_vr_storage_40  STORAGE      0.00     0.00     0.00   204  04:57        0.00
  c_143_vr_storage_70  STORAGE      0.00     0.03     0.03   232  20:00        0.03
  c_147_vr_storage_4   STORAGE      0.00     0.00     0.00   204  04:35        0.00
  c_160_vr_storage_8   STORAGE      0.00     0.00     0.00   232  19:00        0.00
  c_145_vr_storage_4   STORAGE      0.00     0.00     0.00   190  17:05        0.00
  c_144_vr_storage_19  STORAGE      0.00     0.00     0.00   204  04:45        0.00
  c_142_vr_storage_35  STORAGE      0.00     0.00     0.00   232  19:20        0.00
  c_148_vr_storage_12  STORAGE      0.00     0.00     0.00   204  04:38        0.00
  c_149_vr_storage_17  STORAGE      0.00     0.00     0.00   204  04:45        0.00
  c_151_vr_storage_22  STORAGE      0.00     0.00     0.00   204  04:45        0.00
  c_161_vr_storage_32  STORAGE      0.00     0.00     0.00   232  19:17        0.00
  c_138_vr_storage_22  STORAGE      0.00     0.00     0.00   204  04:45        0.00
  c_139_vr_storage_8   STORAGE      0.00     0.00     0.00   204  04:37        0.00
  c_137_vr_storage_4   STORAGE      0.00     0.00     0.00   190  17:05        0.00
  c_122_vr_storage_29  STORAGE      0.00     0.00     0.00   204  04:35        0.00
  c_121_vr_storage_12  STORAGE      0.00     0.00     0.00   232  19:00        0.00
  c_120_vr_storage_8   STORAGE      0.00     0.00     0.00   204  04:35        0.00
  c_119_vr_storage_80  STORAGE      0.00     0.03     0.03   232  19:45        0.03
  c_100_vr_storage_10  STORAGE      0.00     0.00     0.00   204  04:30        0.00
  c_118_vr_storage_13  STORAGE      0.00     0.00     0.00   204  04:31        0.00
  c_116_vr_storage_15  STORAGE      0.00     0.00     0.00   204  04:37        0.00
  c_114_vr_storage_10  STORAGE      0.00     0.00     0.00   204  04:30        0.00
  c_112_vr_storage_21  STORAGE      0.00     0.00     0.00   204  04:25        0.00
  c_107_vr_storage_36  STORAGE      0.00     0.00     0.00   232  19:15        0.00
  c_107_2_vr_storage_12 STORAGE      0.00     0.00     0.00   204  04:35        0.00
  c_106_vr_storage_13  STORAGE      0.00     0.00     0.00   204  04:35        0.00
  c_99_vr_storage_41   STORAGE      0.00     0.00     0.00   232  19:15        0.00
  c_103_vr_storage_8   STORAGE      0.00     0.00     0.00   204  04:30        0.00
  c_98_vr_storage_20   STORAGE      0.00     0.00     0.00   204  04:39        0.00
  gb127                STORAGE      0.01     0.95     0.95   232  19:15        0.95
  c_123                STORAGE      0.05    11.82    11.82   232  22:35       11.82
  c_122                STORAGE      0.53     7.97     7.97     3  10:30        7.97
  c_112                STORAGE      0.02     1.73     1.73   204  04:55        1.73
  c_99                 STORAGE      0.01     5.57     5.57   232  21:20        5.57
  c_119_1              STORAGE      0.09     5.07     5.07   232  20:20        5.07
  c_119_2              STORAGE      0.03     7.04     7.04   232  21:00        7.04
  c_119_3              STORAGE      0.04    11.20    11.20   232  22:55       11.20
  
  
  *******************
  Node Inflow Summary
  *******************
  
  -------------------------------------------------------------------------------------------------
                                  Maximum  Maximum                  Lateral       Total        Flow
                                  Lateral    Total  Time of Max      Inflow      Inflow     Balance
                                   Inflow   Inflow   Occurrence      Volume      Volume       Error
  Node                 Type           CMS      CMS  days hr:min    10^6 ltr    10^6 ltr     Percent
  -------------------------------------------------------------------------------------------------
  Nod_100              JUNCTION     0.000    0.838   149  11:27           0    5.34e+03       0.000
  Nod_890              JUNCTION     0.000    0.371     0  00:16           0         229       0.096
  Nod_891              JUNCTION     0.000    0.258     0  00:19           0         120       0.089
  Nod_892              JUNCTION     0.000    0.148     0  00:02           0        44.6       0.096
  Nod_A*HLCMRZ1135     JUNCTION     0.000    0.315     0  00:00           0        8.17       0.451
  Nod_103              JUNCTION     0.000    0.567   205  08:25           0    5.34e+03       0.049
  Nod_104              JUNCTION     0.000    0.566   205  08:25           0    5.54e+03       0.001
  Nod_105              JUNCTION     0.000    0.521     1  16:34           0    5.41e+03      -0.001
  Nod_106              JUNCTION     0.000    0.524     1  16:27           0    5.41e+03       0.000
  Nod_107              JUNCTION     0.000    0.529     1  16:22           0    5.41e+03       0.101
  Nod_108              JUNCTION     0.000    0.548     1  16:14           0    5.41e+03      -0.049
  Nod_109              JUNCTION     0.000    0.532    39  11:49           0    5.41e+03      -0.007
  Nod_110              JUNCTION     0.000    2.533     1  06:52           0    1.91e+04       0.005
  Nod_111              JUNCTION     0.000    2.533     1  06:22           0    1.91e+04       0.001
  Nod_112              JUNCTION     0.000    2.533     1  06:17           0    1.93e+04       0.007
  Nod_113              JUNCTION     0.000    2.531   204  08:55           0    1.91e+04       0.001
  Nod_114              JUNCTION     0.000    2.531   204  08:56           0    1.91e+04      -0.000
  Nod_115              JUNCTION     0.000    2.530   204  08:50           0    1.91e+04       0.000
  Nod_116              JUNCTION     0.000    2.530   204  08:50           0    1.91e+04       0.000
  Nod_117              JUNCTION     0.000    2.530   204  08:45           0    1.91e+04       0.028
  Nod_118              JUNCTION     0.000    4.383   204  06:31           0    2.17e+04       0.034
  Nod_119              JUNCTION     0.000    0.981     0  00:01           0    5.41e+03      -0.001
  Nod_120              JUNCTION     0.000    0.696     0  00:02           0    5.41e+03      -0.001
  Nod_121              JUNCTION     0.000    0.714   270  01:54           0    5.41e+03      -0.002
  Nod_122              JUNCTION     0.000    0.779   142  06:50           0    5.41e+03      -0.001
  Nod_123              JUNCTION     0.000    3.022   205  08:26           0    2.45e+04      -0.000
  Nod_124              JUNCTION     0.000    3.119   329  17:08           0    2.45e+04      -0.000
  Nod_126              JUNCTION     0.000    2.100   204  06:56           0     1.8e+04      -0.003
  Nod_127              JUNCTION     0.000    2.100     0  00:05           0     1.8e+04       0.001
  Nod_128              JUNCTION     0.000    2.116   204  05:12           0     1.8e+04      -0.003
  Nod_129              JUNCTION     0.000    2.100   204  06:55           0     1.8e+04      -0.002
  Nod_130              JUNCTION     0.000    2.586   149  11:34           0    1.91e+04       0.001
  Nod_131              JUNCTION     0.000    2.561   149  11:35           0    1.91e+04       0.000
  Nod_132              JUNCTION     0.000    2.534     2  11:44           0    1.91e+04       0.000
  Nod_133              JUNCTION     0.000    2.533     1  06:50           0    1.91e+04       0.000
  Nod_134              JUNCTION     0.000    2.533     1  06:51           0    1.91e+04       0.000
  Nod_135              JUNCTION     0.000    2.533     1  06:51           0    1.91e+04       0.000
  Nod_136              JUNCTION     0.000    2.533     1  06:51           0    1.91e+04       0.011
  Nod_222              JUNCTION     0.000    5.828   204  06:37           0    2.17e+04      -0.043
  Nod_233              JUNCTION     0.000    2.726   204  07:07           0    1.91e+04      -0.016
  Nod_244              JUNCTION     0.000    2.543   204  08:11           0    1.91e+04      -0.003
  Nod_266              JUNCTION     0.000    2.537   204  08:12           0    1.91e+04      -0.000
  Nod_277              JUNCTION     0.000    2.529   232  20:48           0    1.91e+04      -0.000
  J1                   JUNCTION     0.000    0.800     1  01:40           0     5.1e+03      -0.002
  J119                 JUNCTION     0.000    7.010   204  05:45           0    2.47e+03      -0.363
  cso_Geldrop          OUTFALL      0.000    2.548   190  19:45           0        18.4       0.000
  cso_gb_136           OUTFALL      0.000    0.744   190  20:05           0        8.06       0.000
  cso_RZ               OUTFALL      0.000    0.000     0  00:00           0           0       0.000 ltr
  cso_ES_1             OUTFALL      0.000    4.565   232  21:55           0        43.1       0.000
  cso_AALST            OUTFALL      0.000    1.817   233  00:20           0        32.4       0.000
  out_ES               OUTFALL      0.000    3.888    37  05:32           0    2.75e+04       0.000
  out_RZ               OUTFALL      0.000    3.020   205  08:34           0    2.45e+04       0.000
  cso_gb127            OUTFALL      0.000    3.401   232  19:15           0        46.8       0.000
  cso_c_122            OUTFALL      0.000    0.192     3  10:30           0         1.5       0.000
  cso_c_119_1          OUTFALL      0.000    2.405   232  20:20           0        55.8       0.000
  cso_c_112            OUTFALL      0.000    0.727   204  04:55           0        5.93       0.000
  cso_c_99             OUTFALL      0.000    0.000     0  00:00           0           0       0.000 ltr
  cso_c_123            OUTFALL      0.000    0.000     0  00:00           0           0       0.000 ltr
  cso_c_119_2          OUTFALL      0.000    1.065   232  21:00           0        4.47       0.000
  cso_c_119_3          OUTFALL      0.000    0.000     0  00:00           0           0       0.000 ltr
  c_24_vr_storage_5    STORAGE     20.939   21.777   232  19:00     2.7e+04    2.75e+04      -0.000
  c_23_vr_storage_7    STORAGE      0.030    0.030   232  19:00        41.8        41.8      -0.000
  c_22_vr_storage_5    STORAGE      0.015    0.015   232  19:00        5.13        5.13      -0.000
  c_21_vr_storage_7    STORAGE      0.032    0.032   232  19:00        40.5        40.5      -0.000
  c_12_vr_storage_8    STORAGE      0.038    0.038   232  19:00        62.1        62.1      -0.000
  c_20_vr_storage_13   STORAGE      0.094    0.094   232  19:00          32          32      -0.000
  c_19_vr_storage_7    STORAGE      0.033    0.033   232  19:00          35          35      -0.000
  c_10_vr_storage_10   STORAGE      0.037    0.037   232  19:30        18.9        18.9      -0.000
  c_16_vr_storage_20   STORAGE      0.248    0.248   232  19:00        84.6        84.6      -0.000
  c_15_vr_storage_24   STORAGE      0.320    0.320   232  19:00         144         144      -0.000
  c_14_vr_storage_24   STORAGE      0.334    0.334   232  19:00         114         114      -0.000
  pipe_ES              STORAGE      0.000   21.646   232  19:00           0    2.75e+04       0.000
  pipe_Geldrop         STORAGE      0.000    7.143   232  18:55           0    5.12e+03      -0.001
  gb_136               STORAGE      0.000    1.527   232  19:05           0    1.33e+03      -0.001
  c_129_vr_storage_5   STORAGE      0.163    0.163   190  17:15        19.6        19.6      -0.000
  c_128_vr_storage_5   STORAGE      6.611    7.260   232  18:55    3.48e+03    5.12e+03       0.000
  c_1285_vr_storage_5  STORAGE      0.174    0.174   232  18:55        37.1        37.1      -0.000
  c_127_vr_storage_5   STORAGE      5.178    6.153   190  17:15         783    1.63e+03       0.000
  c_126_vr_storage_5   STORAGE      0.561    0.975   190  17:15         816         847      -0.000
  c_125_vr_storage_5   STORAGE      0.424    0.424   190  17:10        31.1        31.1      -0.000
  c_124_storage        STORAGE      0.224    0.224   190  17:10         137         263       0.003
  c_136_vr_storage_5   STORAGE      0.684    1.529   232  19:00         861    1.33e+03      -0.000
  c_135_vr_storage_5   STORAGE      0.339    0.339   232  18:55         179         179      -0.000
  c_131_vr_storage_5   STORAGE      0.272    0.349   232  19:00         171         214      -0.000
  c_130_vr_storage_5   STORAGE      0.077    0.077   232  18:55        42.8        42.8      -0.000
  c_134_vr_storage_5   STORAGE      0.084    0.084   232  18:55        40.6        40.6      -0.000
  c_132_vr_storage_5   STORAGE      0.077    0.077   232  18:55        35.3        35.3      -0.000
  Aalst_gemaal         STORAGE      0.000   15.903   232  20:20           0    1.79e+04      -0.914
  pre_ontvangstkelder  STORAGE      0.000    5.185   329  17:07           0    2.45e+04       0.019
  c_150_vr_storage_57  STORAGE      5.523    5.523   204  04:35    1.34e+03    1.34e+03      -0.000
  c_123_vr_storage_40  STORAGE      2.308    2.308   204  04:35         690         690      -0.000
  c_143_vr_storage_70  STORAGE      3.820    9.100   232  19:30    3.77e+03    6.97e+03       0.000
  c_147_vr_storage_4   STORAGE      0.130    0.130   190  17:05          17          17      -0.000
  c_160_vr_storage_8   STORAGE      0.188    0.188   190  17:05    1.63e+03    1.63e+03      -0.000
  c_145_vr_storage_4   STORAGE      0.059    0.059   190  17:05        25.2        25.2      -0.000
  c_144_vr_storage_19  STORAGE      0.480    0.480   204  04:35         141         141      -0.000
  c_142_vr_storage_35  STORAGE      1.550    1.550   204  04:35         551         551      -0.000
  c_148_vr_storage_12  STORAGE      0.306    0.306   204  04:35        72.4        72.4      -0.000
  c_149_vr_storage_17  STORAGE      0.367    0.367   204  04:35        70.5        70.5      -0.000
  c_151_vr_storage_22  STORAGE      0.683    0.683   204  04:35         136         136      -0.000
  c_161_vr_storage_32  STORAGE      1.276    1.276   232  18:55         261         261      -0.000
  c_138_vr_storage_22  STORAGE      0.630    0.799   204  04:35         231         307      -0.000
  c_139_vr_storage_8   STORAGE      0.131    0.131   204  04:35        18.1        18.1      -0.000
  c_137_vr_storage_4   STORAGE      0.060    0.060   190  17:05          58          58      -0.000
  c_122_vr_storage_29  STORAGE      1.667    1.667   190  17:00         348         348      -0.000
  c_121_vr_storage_12  STORAGE      0.121    0.210   232  18:55         287         343      -0.000
  c_120_vr_storage_8   STORAGE      0.099    0.099   204  04:30        55.3        55.3      -0.000
  c_119_vr_storage_80  STORAGE      6.556    7.039   204  04:30    2.39e+03    2.47e+03      -0.000
  c_100_vr_storage_10  STORAGE      0.185    0.185   204  04:25        45.7        45.7      -0.000
  c_118_vr_storage_13  STORAGE      0.304    0.304   204  04:30        41.9        41.9      -0.000
  c_116_vr_storage_15  STORAGE      0.282    0.439   204  04:30        89.7         135      -0.000
  c_114_vr_storage_10  STORAGE      0.159    0.159   204  04:30        44.9        44.9      -0.000
  c_112_vr_storage_21  STORAGE      1.366    1.366   190  17:00         165         165      -0.000
  c_107_vr_storage_36  STORAGE      1.266    1.646   204  04:35    4.21e+03    4.67e+03      -0.000
  c_107_2_vr_storage_12 STORAGE      0.176    0.176   204  04:30        41.5        41.5      -0.000
  c_106_vr_storage_13  STORAGE      0.235    0.235   204  04:30         418         418      -0.000
  c_99_vr_storage_41   STORAGE      1.665    1.773   204  04:30         597         631      -0.000
  c_103_vr_storage_8   STORAGE      0.108    0.108   204  04:25        33.7        33.7      -0.000
  c_98_vr_storage_20   STORAGE      0.504    0.504   204  04:30         181         181      -0.000
  gb127                STORAGE      0.000    5.672   190  17:15           0    1.63e+03      -0.002
  c_123                STORAGE      0.000    2.306   204  05:10           0         690      -0.001
  c_122                STORAGE      0.000    1.664   190  17:25           0         348      -0.001
  c_112                STORAGE      0.000    1.366   190  17:15           0         165      -0.005
  c_99                 STORAGE      0.000    1.771   204  05:05           0         631      -0.001
  c_119_1              STORAGE      0.000   10.000     0  00:00           0         993      -0.001
  c_119_2              STORAGE      0.000   10.000     0  00:00           0         696      -0.000
  c_119_3              STORAGE      0.000   10.000     0  00:00           0         795      -0.001
  
  
  **********************
  Node Surcharge Summary
  **********************
  
  Surcharging occurs when water rises above the top of the highest conduit.
  ---------------------------------------------------------------------
                                               Max. Height   Min. Depth
                                   Hours       Above Crown    Below Rim
  Node                 Type      Surcharged         Meters       Meters
  ---------------------------------------------------------------------
  Nod_100              JUNCTION      382.66          0.782        0.938
  Nod_890              JUNCTION        2.91          0.026        0.874
  Nod_108              JUNCTION        7.66          0.062        6.868
  Nod_109              JUNCTION      188.62          0.809       25.871
  Nod_114              JUNCTION       23.37          0.151        5.979
  Nod_115              JUNCTION       95.17          0.498        6.002
  Nod_116              JUNCTION      100.41          0.517        6.013
  Nod_117              JUNCTION      161.24          0.771        6.159
  Nod_118              JUNCTION      193.32          0.909        6.291
  Nod_119              JUNCTION      206.95          0.887       25.873
  Nod_120              JUNCTION      229.44          0.955       25.875
  Nod_121              JUNCTION      265.09          1.066       25.874
  Nod_122              JUNCTION      304.53          1.184       25.876
  Nod_123              JUNCTION      322.23          1.232       25.878
  Nod_124              JUNCTION      341.63          1.279       25.911
  Nod_222              JUNCTION      220.92          1.037        6.313
  Nod_233              JUNCTION      254.53          1.075       25.605
  Nod_244              JUNCTION      263.03          1.095       25.665
  Nod_266              JUNCTION      267.44          1.098       25.732
  Nod_277              JUNCTION      285.56          1.141       25.799
  J119                 JUNCTION     8760.00      21298.961    99978700.039
  
  
  *********************
  Node Flooding Summary
  *********************
  
  No nodes were flooded.
  
  
  **********************
  Storage Volume Summary
  **********************
  
  ------------------------------------------------------------------------------------------------
                         Average    Avg   Evap  Exfil     Maximum    Max    Time of Max    Maximum
                          Volume   Pcnt   Pcnt   Pcnt      Volume   Pcnt     Occurrence    Outflow
  Storage Unit           1000 m³   Full   Loss   Loss     1000 m³   Full    days hr:min        CMS
  ------------------------------------------------------------------------------------------------
  c_24_vr_storage_5        0.161    0.0    0.0    0.0       3.454    0.0     232  19:30     21.646
  c_23_vr_storage_7        0.000    0.0    0.0    0.0       0.005    0.0     232  19:00      0.030
  c_22_vr_storage_5        0.000    0.0    0.0    0.0       0.002    0.0     232  19:00      0.015
  c_21_vr_storage_7        0.000    0.0    0.0    0.0       0.005    0.0     232  19:00      0.032
  c_12_vr_storage_8        0.001    0.0    0.0    0.0       0.017    0.0     232  19:01      0.038
  c_20_vr_storage_13       0.001    0.0    0.0    0.0       0.070    0.0     232  19:05      0.094
  c_19_vr_storage_7        0.000    0.0    0.0    0.0       0.005    0.0     232  19:00      0.033
  c_10_vr_storage_10       0.000    0.0    0.0    0.0       0.017    0.0     232  19:35      0.037
  c_16_vr_storage_20       0.003    0.0    0.0    0.0       0.256    0.0     232  19:10      0.248
  c_15_vr_storage_24       0.006    0.0    0.0    0.0       0.424    0.0     232  19:15      0.320
  c_14_vr_storage_24       0.005    0.0    0.0    0.0       0.443    0.0     232  19:15      0.334
  pipe_ES                 15.590    7.9    0.0    0.0     172.465   87.1     232  21:55      8.453
  pipe_Geldrop             0.295    0.6    0.0    0.0      28.567   57.1     190  19:45      3.348
  gb_136                   0.091    0.6    0.0    0.0       8.970   59.8     190  20:05      0.935
  c_129_vr_storage_5       0.000    0.0    0.0    0.0       0.024    0.0     232  18:55      0.163
  c_128_vr_storage_5       0.789    0.0    0.0    0.0       2.065    0.0     232  18:56      7.143
  c_1285_vr_storage_5      0.000    0.0    0.0    0.0       0.026    0.0     232  18:55      0.173
  c_127_vr_storage_5       0.005    0.0    0.0    0.0       0.897    0.0     232  18:56      5.672
  c_126_vr_storage_5       0.001    0.0    0.0    0.0       0.193    0.0     190  17:15      0.975
  c_125_vr_storage_5       0.000    0.0    0.0    0.0       0.053    0.0     190  17:10      0.415
  c_124_storage           46.325    0.5    0.0    0.0      63.343    0.6     357  20:45      0.013
  c_136_vr_storage_5       0.008    0.0    0.0    0.0       0.354    0.0     232  19:05      1.527
  c_135_vr_storage_5       0.001    0.0    0.0    0.0       0.051    0.0     232  19:00      0.337
  c_131_vr_storage_5       0.001    0.0    0.0    0.0       0.064    0.0     232  19:00      0.349
  c_130_vr_storage_5       0.000    0.0    0.0    0.0       0.012    0.0     232  18:56      0.077
  c_134_vr_storage_5       0.000    0.0    0.0    0.0       0.013    0.0     232  18:59      0.083
  c_132_vr_storage_5       0.000    0.0    0.0    0.0       0.012    0.0     232  18:56      0.077
  Aalst_gemaal             2.675    1.8    0.0    0.0     144.401   99.7     233  00:20      3.917
  pre_ontvangstkelder      0.036   12.3    0.0    0.0       0.246   84.7     205  08:34      3.020
  c_150_vr_storage_57      0.098    0.0    0.0    0.0      14.238    0.1     204  05:05      5.521
  c_123_vr_storage_40      0.046    0.0    0.0    0.0       4.668    0.0     204  04:57      2.306
  c_143_vr_storage_70      0.802    0.0    0.0    0.0      34.280    0.3     232  20:00      9.100
  c_147_vr_storage_4       0.000    0.0    0.0    0.0       0.019    0.0     204  04:35      0.128
  c_160_vr_storage_8       0.025    0.0    0.0    0.0       0.082    0.0     232  19:00      0.186
  c_145_vr_storage_4       0.000    0.0    0.0    0.0       0.008    0.0     190  17:05      0.058
  c_144_vr_storage_19      0.004    0.0    0.0    0.0       0.490    0.0     204  04:45      0.479
  c_142_vr_storage_35      0.032    0.0    0.0    0.0       2.809    0.0     232  19:20      1.549
  c_148_vr_storage_12      0.001    0.0    0.0    0.0       0.136    0.0     204  04:38      0.306
  c_149_vr_storage_17      0.002    0.0    0.0    0.0       0.272    0.0     204  04:45      0.367
  c_151_vr_storage_22      0.004    0.0    0.0    0.0       0.696    0.0     204  04:45      0.682
  c_161_vr_storage_32      0.013    0.0    0.0    0.0       2.009    0.0     232  19:17      1.274
  c_138_vr_storage_22      0.010    0.0    0.0    0.0       0.837    0.0     204  04:45      0.794
  c_139_vr_storage_8       0.000    0.0    0.0    0.0       0.058    0.0     204  04:37      0.131
  c_137_vr_storage_4       0.000    0.0    0.0    0.0       0.008    0.0     190  17:05      0.059
  c_122_vr_storage_29      0.017    0.0    0.0    0.0       2.523    0.0     204  04:35      1.664
  c_121_vr_storage_12      0.002    0.0    0.0    0.0       0.102    0.0     232  19:00      0.210
  c_120_vr_storage_8       0.001    0.0    0.0    0.0       0.044    0.0     204  04:35      0.099
  c_119_vr_storage_80      0.337    0.0    0.0    0.0      26.722    0.3     232  19:45      7.010
  c_100_vr_storage_10      0.001    0.0    0.0    0.0       0.082    0.0     204  04:30      0.185
  c_118_vr_storage_13      0.001    0.0    0.0    0.0       0.224    0.0     204  04:31      0.304
  c_116_vr_storage_15      0.003    0.0    0.0    0.0       0.341    0.0     204  04:37      0.435
  c_114_vr_storage_10      0.001    0.0    0.0    0.0       0.070    0.0     204  04:30      0.159
  c_112_vr_storage_21      0.005    0.0    0.0    0.0       1.202    0.0     204  04:25      1.366
  c_107_vr_storage_36      0.036    0.0    0.0    0.0       2.847    0.0     232  19:15      1.624
  c_107_2_vr_storage_12     0.000    0.0    0.0    0.0       0.077    0.0     204  04:35      0.176
  c_106_vr_storage_13      0.002    0.0    0.0    0.0       0.163    0.0     204  04:35      0.235
  c_99_vr_storage_41       0.042    0.0    0.0    0.0       3.640    0.0     232  19:15      1.771
  c_103_vr_storage_8       0.000    0.0    0.0    0.0       0.048    0.0     204  04:30      0.108
  c_98_vr_storage_20       0.006    0.0    0.0    0.0       0.503    0.0     204  04:39      0.504
  gb127                    0.092    0.5    0.0    0.0       9.530   51.2     232  19:15      3.717
  c_123                    0.052    0.2    0.0    0.0      11.820   39.4     232  22:35      0.284
  c_122                    0.532    5.3    0.0    0.0       7.974   79.7       3  10:30      0.223
  c_112                    0.017    0.8    0.0    0.0       1.733   86.7     204  04:55      0.788
  c_99                     0.008    0.0    0.0    0.0       5.574   27.9     232  21:20      0.556
  c_119_1                  0.092    0.9    0.0    0.0       5.074   50.7     232  20:20      2.648
  c_119_2                  0.031    0.3    0.0    0.0       7.043   70.4     232  21:00      1.405
  c_119_3                  0.041    0.2    0.0    0.0      11.202   56.0     232  22:55      0.389
  
  
  ***********************
  Outfall Loading Summary
  ***********************
  
  -----------------------------------------------------------
                         Flow       Avg       Max       Total
                         Freq      Flow      Flow      Volume
  Outfall Node           Pcnt       CMS       CMS    10^6 ltr
  -----------------------------------------------------------
  cso_Geldrop            0.11     0.548     2.548      18.358
  cso_gb_136             0.16     0.163     0.744       8.060
  cso_RZ                 0.00     0.000     0.000       0.000
  cso_ES_1               0.08     1.666     4.565      43.131
  cso_AALST              0.14     0.746     1.817      32.431
  out_ES                99.91     0.872     3.888   27484.072
  out_RZ               100.00     0.777     3.020   24511.850
  cso_gb127              0.18     0.804     3.401      46.800
  cso_c_122              0.05     0.090     0.192       1.500
  cso_c_119_1            0.37     0.482     2.405      55.839
  cso_c_112              0.10     0.186     0.727       5.932
  cso_c_99               0.00     0.000     0.000       0.000
  cso_c_123              0.00     0.000     0.000       0.000
  cso_c_119_2            0.05     0.263     1.065       4.472
  cso_c_119_3            0.00     0.000     0.000       0.000
  -----------------------------------------------------------
  System                13.41     6.597    12.660   52212.445
  
  
  ********************
  Link Flow Summary
  ********************
  
  -----------------------------------------------------------------------------
                                 Maximum  Time of Max   Maximum    Max/    Max/
                                  |Flow|   Occurrence   |Veloc|    Full    Full
  Link                 Type          CMS  days hr:min     m/sec    Flow   Depth
  -----------------------------------------------------------------------------
  Con_158              CONDUIT     0.258     0  00:19      0.90    0.01    0.99
  Con_159              CONDUIT     0.114     0  00:22      0.32    0.02    0.96
  Con_160              CONDUIT     0.315     0  00:00      1.02    0.02    0.98
  Con_101              CONDUIT     0.567   205  08:25      0.59    1.76    0.82
  Con_102              CONDUIT     0.566   205  08:25      0.65    1.24    0.74
  Con_103              CONDUIT     0.524     1  16:27      0.71    0.69    0.70
  Con_104              CONDUIT     0.521     1  16:34      1.48    0.52    0.67
  Con_105              CONDUIT     0.529     1  16:22      0.74    1.13    0.73
  Con_106              CONDUIT     0.548     1  16:14      0.85    0.71    0.85
  Con_107              CONDUIT     0.532    39  11:49      0.75    0.13    1.00
  Con_108              CONDUIT     0.981     0  00:01      1.30    0.22    1.00
  Con_109              CONDUIT     2.533     1  06:22      1.07    0.43    0.76
  Con_110              CONDUIT     2.533     1  06:17      1.21    0.39    0.84
  Con_157              CONDUIT     0.371     0  00:16      0.91    0.01    1.00
  Con_111              CONDUIT     2.531   204  08:55      0.80    0.44    1.00
  Con_112              CONDUIT     2.531   204  08:56      1.01    0.34    0.96
  Con_113              CONDUIT     2.530   204  08:50      1.20    0.58    1.00
  Con_114              CONDUIT     2.530   204  08:50      1.20    0.64    1.00
  Con_115              CONDUIT     2.530   204  08:45      1.18    0.61    1.00
  Con_116              CONDUIT     2.632   204  07:18      1.22    0.63    1.00
  Con_117              CONDUIT     5.828   204  06:37      2.13    0.39    1.00
  Con_118              CONDUIT     0.696     0  00:02      1.08    0.18    1.00
  Con_119              CONDUIT     0.714   270  01:54      0.87    0.14    1.00
  Con_120              CONDUIT     0.779   142  06:50      0.71    0.16    1.00
  Con_121              CONDUIT     0.881   170  03:25      0.73    0.17    1.00
  Con_122              CONDUIT     3.022   205  08:26      3.42    0.65    1.00
  Con_123              CONDUIT     5.185   329  17:07      6.34    0.06    1.00
  Con_125              CONDUIT     2.100   204  06:55      1.01    0.91    0.73
  Con_126              CONDUIT     2.116   204  05:12      1.06    1.45    0.74
  Con_127              CONDUIT     2.100   204  06:56      1.72    0.33    0.70
  Con_128              CONDUIT     2.100   204  07:14      1.56    0.88    0.47
  Con_129              CONDUIT     2.561   149  11:35      1.41    0.33    0.50
  Con_130              CONDUIT     2.534     2  11:44      0.90    0.53    0.57
  Con_140              CONDUIT     2.533     1  06:50      0.88    0.47    0.59
  Con_141              CONDUIT     2.533     1  06:51      0.86    0.53    0.61
  Con_142              CONDUIT     2.533     1  06:51      0.85    0.54    0.63
  Con_143              CONDUIT     2.533     1  06:51      0.84    0.53    0.65
  Con_144              CONDUIT     2.533     1  06:52      1.00    0.68    0.67
  Con_152              CONDUIT     2.726   204  07:07      1.08    1.02    1.00
  Con_153              CONDUIT     2.543   204  08:11      1.08    0.89    1.00
  Con_154              CONDUIT     2.537   204  08:12      1.14    0.99    1.00
  Con_155              CONDUIT     2.529   232  20:48      1.10    0.78    1.00
  Con_156              CONDUIT     2.540   204  08:10      1.38    0.69    1.00
  geldrop_out_east     CONDUIT     0.486   149  11:34      1.17   17.86    0.86
  geldrop_out_north    CONDUIT     0.647   149  11:27      0.92    0.44    0.86
  eeneind_out          CONDUIT     0.054   357  05:13      1.72    0.58    0.63
  P_c_24_d_5           PUMP       21.646   232  19:00              2.16
  P_c_23_d_7           PUMP        0.030   232  19:00              0.00
  P_c_22_d_5           PUMP        0.015   232  19:00              0.00
  P_c_21_d_7           PUMP        0.032   232  19:00              0.00
  P_c_12_d_8           PUMP        0.038   232  19:05              0.00
  P_c_20_d_13          PUMP        0.094   232  19:10              0.01
  P_c_19_d_7           PUMP        0.033   232  19:00              0.00
  P_c_10_d_10          PUMP        0.037   232  19:35              0.00
  P_c_16_d_20          PUMP        0.248   232  19:15              0.02
  P_c_15_d_24          PUMP        0.320   232  19:20              0.03
  P_c_14_d_24          PUMP        0.334   232  19:20              0.03
  P_c_129_d_5          PUMP        0.163   190  17:15              0.02
  P_c_128_d_5          PUMP        7.143   232  18:55              0.71
  P_c_1285_d_5         PUMP        0.173   232  18:55              0.02
  P_c_127_d_5          PUMP        5.672   190  17:15              0.57
  P_c_126_d_5          PUMP        0.975   190  17:15              0.10
  P_c_125_d_5          PUMP        0.415   190  17:10              0.04
  P_c_136_d_5          PUMP        1.527   232  19:05              0.15
  P_c_135_d_5          PUMP        0.337   232  19:00              0.03
  P_c_131_d_5          PUMP        0.349   232  19:00              0.03
  P_c_130_d_5          PUMP        0.077   232  18:55              0.01
  P_c_134_d_5          PUMP        0.083   232  18:55              0.01
  P_c_132_d_5          PUMP        0.077   232  18:55              0.01
  Con_1119.1           PUMP        0.191     1  02:45              1.00
  P_riool_zuid_out     PUMP        3.020   205  08:34              0.64
  P_eindhoven_out      PUMP        3.888    37  05:32              1.00
  P_c_150_d_57         PUMP        5.521   204  05:25              0.55
  P_c_123_d_40         PUMP        2.306   204  05:10              0.23
  P_c_143_d_70         PUMP        9.100   232  20:35              0.91
  P_c_147_d_4          PUMP        0.128   190  17:05              0.01
  P_c_160_d_8          PUMP        0.186   190  17:10              0.02
  P_c_145_d_4          PUMP        0.058   190  17:05              0.01
  P_c_144_d_19         PUMP        0.479   204  04:50              0.05
  P_c_142_d_35         PUMP        1.549   204  05:10              0.15
  P_c_148_d_12         PUMP        0.306   204  04:40              0.03
  P_c_149_d_17         PUMP        0.367   204  04:50              0.04
  P_c_151_d_22         PUMP        0.682   204  04:50              0.07
  P_c_161_d_32         PUMP        1.274   232  19:20              0.13
  P_c_138_d_22         PUMP        0.794   204  04:55              0.08
  P_c_139_d_8          PUMP        0.131   204  04:40              0.01
  P_c_137_d_4          PUMP        0.059   190  17:05              0.01
  P_c_122_d_29         PUMP        1.664   190  17:25              0.17
  P_c_121_d_12         PUMP        0.210   232  19:00              0.02
  P_c_120_d_8          PUMP        0.099   204  04:35              0.01
  P_c_119_d_80         PUMP        7.010   204  05:45              0.70
  P_c_100_d_10         PUMP        0.185   204  04:30              0.02
  P_c_118_d_13         PUMP        0.304   204  04:40              0.03
  P_c_116_d_15         PUMP        0.435   204  04:40              0.04
  P_c_114_d_10         PUMP        0.159   204  04:35              0.02
  P_c_112_d_21         PUMP        1.366   190  17:15              0.14
  P_c_107_d_36         PUMP        1.624   204  05:05              0.16
  P_c_107_2_d_12       PUMP        0.176   204  04:35              0.02
  P_c_106_d_13         PUMP        0.235   204  04:40              0.02
  P_c_99_d_41          PUMP        1.771   204  05:05              0.18
  P_c_103_d_8          PUMP        0.108   204  04:30              0.01
  P_c_98_d_20          PUMP        0.504   204  04:45              0.05
  P_aalst_1            PUMP        0.560     0  00:05              1.00
  P_aalst_2            PUMP        0.560     0  00:05              1.00
  P_aalst_3            PUMP        0.490     0  00:05              1.00
  P_aalst_4            PUMP        0.490     0  00:00              1.00
  P_pipe_Geldrop       PUMP        0.800     1  01:40              1.00
  P_gb127              PUMP        0.316     1  01:30              1.00
  P_c_99               PUMP        0.556    37  03:25              1.00
  P_c_112              PUMP        0.061     0  08:30              1.00
  P_c_119_1            PUMP        0.243     0  00:00              1.00
  P_c_122              PUMP        0.031     0  06:05              1.00
  P_c_123              PUMP        0.284     1  03:20              1.00
  P_c_119_2            PUMP        0.340     0  00:00              1.00
  P_c_119_3            PUMP        0.389     0  00:00              1.00
  P_c_119_fr_040       PUMP       10.000     0  00:00              1.00
  P_c_119_fr_028       PUMP       10.000     0  00:00              1.00
  P_c_119_fr_032       PUMP       10.000     0  00:00              1.00
  weir_gb_136          WEIR        0.744   190  20:05                      0.03
  Con_A*HLCMRZ1135.1   WEIR        0.000     0  00:00                      0.00
  weir_ES              WEIR        4.565   232  21:55                      0.11
  Aalst_weir           WEIR        1.817   233  00:20                      0.06
  weir_gb127           WEIR        3.401   232  19:15                      0.09
  weir_pipe_Geldrop    WEIR        2.548   190  19:45                      0.08
  weir_c_123           WEIR        0.000     0  00:00                      0.00
  weir_c_99            WEIR        0.000     0  00:00                      0.00
  weir_c_112           WEIR        0.727   204  04:55                      0.03
  weir_c_119_1         WEIR        2.405   232  20:20                      0.07
  weir_c_122           WEIR        0.192     3  10:30                      0.01
  weir_c_119_2         WEIR        1.065   232  21:00                      0.04
  weir_c_119_3         WEIR        0.000     0  00:00                      0.00
  
  
  ***************************
  Flow Classification Summary
  ***************************
  
  -------------------------------------------------------------------------------------
                      Adjusted    ---------- Fraction of Time in Flow Class ---------- 
                       /Actual         Up    Down  Sub   Sup   Up    Down  Norm  Inlet 
  Conduit               Length    Dry  Dry   Dry   Crit  Crit  Crit  Crit  Ltd   Ctrl  
  -------------------------------------------------------------------------------------
  Con_158                 1.00   0.00  0.00  0.00  1.00  0.00  0.00  0.00  0.00  0.00
  Con_159                 1.00   0.00  0.00  0.00  1.00  0.00  0.00  0.00  0.00  0.00
  Con_160                 1.00   0.00  0.00  0.00  1.00  0.00  0.00  0.00  0.00  0.00
  Con_101                 1.00   0.00  0.00  0.00  1.00  0.00  0.00  0.00  0.00  0.00
  Con_102                 1.00   0.00  0.00  0.00  1.00  0.00  0.00  0.00  0.00  0.00
  Con_103                 1.00   0.00  0.00  0.00  1.00  0.00  0.00  0.00  0.00  0.00
  Con_104                 1.00   0.00  0.00  0.00  1.00  0.00  0.00  0.00  0.00  0.00
  Con_105                 1.00   0.00  0.00  0.00  1.00  0.00  0.00  0.00  0.00  0.00
  Con_106                 1.00   0.00  0.00  0.00  0.03  0.00  0.00  0.97  0.01  0.00
  Con_107                 1.00   0.00  0.00  0.00  1.00  0.00  0.00  0.00  0.02  0.00
  Con_108                 1.00   0.00  0.00  0.00  1.00  0.00  0.00  0.00  0.38  0.00
  Con_109                 1.00   0.00  0.00  0.00  1.00  0.00  0.00  0.00  0.00  0.00
  Con_110                 1.00   0.00  0.00  0.00  1.00  0.00  0.00  0.00  0.00  0.00
  Con_157                 1.00   0.00  0.00  0.00  1.00  0.00  0.00  0.00  0.00  0.00
  Con_111                 1.00   0.00  0.00  0.00  1.00  0.00  0.00  0.00  0.00  0.00
  Con_112                 1.00   0.00  0.00  0.00  1.00  0.00  0.00  0.00  0.89  0.00
  Con_113                 1.00   0.00  0.00  0.00  1.00  0.00  0.00  0.00  0.00  0.00
  Con_114                 1.00   0.00  0.00  0.00  1.00  0.00  0.00  0.00  0.00  0.00
  Con_115                 1.00   0.00  0.00  0.00  1.00  0.00  0.00  0.00  0.74  0.00
  Con_116                 1.00   0.00  0.00  0.00  1.00  0.00  0.00  0.00  0.38  0.00
  Con_117                 1.00   0.00  0.00  0.00  1.00  0.00  0.00  0.00  0.15  0.00
  Con_118                 1.00   0.00  0.00  0.00  1.00  0.00  0.00  0.00  0.00  0.00
  Con_119                 1.00   0.00  0.00  0.00  1.00  0.00  0.00  0.00  0.83  0.00
  Con_120                 1.00   0.00  0.00  0.00  1.00  0.00  0.00  0.00  0.28  0.00
  Con_121                 1.00   0.00  0.00  0.00  1.00  0.00  0.00  0.00  0.00  0.00
  Con_122                 1.00   0.00  0.00  0.00  0.06  0.94  0.00  0.00  0.00  0.00
  Con_123                 1.00   0.00  0.00  0.00  0.39  0.31  0.00  0.30  0.63  0.00
  Con_125                 1.00   0.00  0.00  0.00  1.00  0.00  0.00  0.00  0.72  0.00
  Con_126                 1.00   0.00  0.00  0.00  1.00  0.00  0.00  0.00  0.00  0.00
  Con_127                 1.00   0.00  0.00  0.00  1.00  0.00  0.00  0.00  0.91  0.00
  Con_128                 1.00   0.00  0.00  0.00  0.00  0.00  0.00  1.00  0.00  0.00
  Con_129                 1.00   0.00  0.00  0.00  1.00  0.00  0.00  0.00  0.92  0.00
  Con_130                 1.00   0.00  0.00  0.00  1.00  0.00  0.00  0.00  0.03  0.00
  Con_140                 1.00   0.00  0.00  0.00  1.00  0.00  0.00  0.00  0.00  0.00
  Con_141                 1.00   0.00  0.00  0.00  1.00  0.00  0.00  0.00  0.24  0.00
  Con_142                 1.00   0.00  0.00  0.00  1.00  0.00  0.00  0.00  0.00  0.00
  Con_143                 1.00   0.00  0.00  0.00  1.00  0.00  0.00  0.00  0.00  0.00
  Con_144                 1.00   0.00  0.00  0.00  0.71  0.00  0.00  0.29  0.00  0.00
  Con_152                 1.00   0.00  0.00  0.00  1.00  0.00  0.00  0.00  0.17  0.00
  Con_153                 1.00   0.00  0.00  0.00  1.00  0.00  0.00  0.00  0.05  0.00
  Con_154                 1.00   0.00  0.00  0.00  1.00  0.00  0.00  0.00  0.00  0.00
  Con_155                 1.00   0.00  0.00  0.00  1.00  0.00  0.00  0.00  0.00  0.00
  Con_156                 1.00   0.00  0.00  0.00  1.00  0.00  0.00  0.00  0.00  0.00
  geldrop_out_east        1.00   0.00  0.00  0.00  1.00  0.00  0.00  0.00  0.00  0.00
  geldrop_out_north       1.00   0.00  0.00  0.00  1.00  0.00  0.00  0.00  0.89  0.00
  eeneind_out             1.00   0.00  0.00  0.00  0.93  0.07  0.00  0.00  0.88  0.00
  
  
  *************************
  Conduit Surcharge Summary
  *************************
  
  ----------------------------------------------------------------------------
                                                           Hours        Hours 
                         --------- Hours Full --------   Above Full   Capacity
  Conduit                Both Ends  Upstream  Dnstream   Normal Flow   Limited
  ----------------------------------------------------------------------------
  Con_158                     0.01      0.01      2.91      0.01         0.01
  Con_160                     0.01      0.01     16.10      0.01         0.01
  Con_101                     0.01    428.46      0.01    766.35         0.01
  Con_102                     0.01      0.01      0.01    500.34         0.01
  Con_105                     0.01      0.01      0.01    345.22         0.01
  Con_106                     0.01      0.01      7.66      0.01         0.01
  Con_107                   117.86    117.86    188.62      0.01         0.01
  Con_108                   188.62    188.62    206.95      0.01         0.01
  Con_157                     2.91      2.91     16.09      0.01         0.01
  Con_111                    16.09     16.09     22.88      0.01         0.01
  Con_112                     0.01      0.01     23.37      0.01         0.01
  Con_113                    85.51     85.51     95.16      0.01         0.01
  Con_114                    95.16     95.16    100.40      0.01         0.01
  Con_115                   100.40    100.40    161.23      0.01         0.01
  Con_116                   161.23    161.23    210.91      0.01         0.01
  Con_117                   193.31    193.31    694.43      0.01         0.01
  Con_118                   206.95    206.95    229.42      0.01         0.01
  Con_119                   229.42    229.42    265.08      0.01         0.01
  Con_120                   265.08    265.08    304.52      0.01         0.01
  Con_121                   304.52    304.52    322.22      0.01         0.01
  Con_122                   322.22    322.22    341.62      0.01         0.01
  Con_123                   341.62    341.62   1164.48      0.01         0.01
  Con_126                     0.01      0.01      0.01    778.22         0.01
  Con_152                   220.92    220.92    254.51      2.67         0.01
  Con_153                   254.51    254.51    263.02      0.01         0.01
  Con_154                   263.02    263.02    267.43      0.01         0.01
  Con_155                   267.43    267.43    285.56      0.01         0.01
  Con_156                   285.56    285.56    322.22      0.01         0.01
  geldrop_out_east            0.01      0.01      0.01    755.21         0.01
  geldrop_out_north           0.01      0.01    382.61      0.01         0.01
  eeneind_out                 0.01      0.01   8754.43      0.01         0.01
  
  
  ***************
  Pumping Summary
  ***************
  
  ---------------------------------------------------------------------------------------------------------
                                                  Min       Avg       Max     Total     Power    % Time Off
                        Percent   Number of      Flow      Flow      Flow    Volume     Usage    Pump Curve
  Pump                 Utilized   Start-Ups       CMS       CMS       CMS  10^6 ltr     Kw-hr    Low   High
  ---------------------------------------------------------------------------------------------------------
  P_c_24_d_5             100.00           1      0.00      0.87     21.65 27537.171  26987.08    0.0  100.0
  P_c_23_d_7             100.00           1      0.00      0.00      0.03    41.803      0.03    0.0  100.0
  P_c_22_d_5              23.80          89      0.00      0.00      0.02     5.110      0.01    0.0  100.0
  P_c_21_d_7             100.00           1      0.00      0.00      0.03    40.512      0.03    0.0  100.0
  P_c_12_d_8             100.00           1      0.00      0.00      0.04    62.072      0.05    0.0   99.7
  P_c_20_d_13             27.15          77      0.00      0.00      0.09    32.038      0.05    0.0   98.1
  P_c_19_d_7             100.00           1      0.00      0.00      0.03    35.037      0.03    0.0  100.0
  P_c_10_d_10             31.55          69      0.00      0.00      0.04    18.849      0.03    0.0   95.5
  P_c_16_d_20             27.77          81      0.00      0.01      0.25    84.592      0.12    0.0   97.6
  P_c_15_d_24            100.00           1      0.00      0.00      0.32   144.035      0.17    0.0   99.2
  P_c_14_d_24             27.85          80      0.00      0.01      0.33   114.072      0.16    0.0   97.1
  P_c_129_d_5             17.34         104      0.00      0.00      0.16    19.585      0.05    0.0  100.0
  P_c_128_d_5            100.00           1      0.00      0.16      7.14  5116.445 211962.34    0.0  100.0
  P_c_1285_d_5           100.00           1      0.00      0.00      0.17    37.116      0.09    0.0  100.0
  P_c_127_d_5            100.00           1      0.00      0.05      5.67  1630.085    365.41    0.0    4.1
  P_c_126_d_5            100.00           1      0.00      0.03      0.97   846.777      0.03    0.0   94.8
  P_c_125_d_5            100.00           1      0.00      0.00      0.41    31.137      0.00    0.0   99.8
  P_c_136_d_5            100.00           1      0.00      0.04      1.53  1329.726  59728.60    0.0  100.0
  P_c_135_d_5            100.00           1      0.00      0.01      0.34   179.043      0.01    0.0  100.0
  P_c_131_d_5            100.00           1      0.00      0.01      0.35   214.096      0.01    0.0  100.0
  P_c_130_d_5            100.00           1      0.00      0.00      0.08    42.838      0.00    0.0   99.8
  P_c_134_d_5            100.00           1      0.00      0.00      0.08    40.586      0.00    0.0  100.0
  P_c_132_d_5            100.00           1      0.00      0.00      0.08    35.270      0.00    0.0  100.0
  Con_1119.1             100.00           1      0.00      0.04      0.19  1321.674   4195.66    0.0    3.8
  P_riool_zuid_out       100.00           1      0.00      0.78      3.02 24511.851 584730.66    0.0    0.0
  P_eindhoven_out         99.91           1      0.00      0.87      3.89 27484.074  26704.39    0.0    0.0
  P_c_150_d_57           100.00           1      0.00      0.04      5.52  1341.656   2517.27    0.0   99.0
  P_c_123_d_40           100.00           1      0.00      0.02      2.31   690.487   1272.96    0.0    1.7
  P_c_143_d_70           100.00           1      0.00      0.22      9.10  6972.981   8829.59    0.0   98.9
  P_c_147_d_4             18.07          96      0.00      0.00      0.13    16.992      0.24    0.0  100.0
  P_c_160_d_8            100.00           1      0.00      0.05      0.19  1626.242      4.41    0.0  100.0
  P_c_145_d_4            100.00           1      0.00      0.00      0.06    25.173      0.11    0.0  100.0
  P_c_144_d_19           100.00           1      0.00      0.00      0.48   140.744      1.48    0.0  100.0
  P_c_142_d_35           100.00           1      0.00      0.02      1.55   551.332      5.04    0.0  100.0
  P_c_148_d_12           100.00           1      0.00      0.00      0.31    72.408      0.73    0.0  100.0
  P_c_149_d_17            22.30          95      0.00      0.01      0.37    70.490      1.05    0.0  100.0
  P_c_151_d_22           100.00           1      0.00      0.00      0.68   135.759      1.80    0.0  100.0
  P_c_161_d_32            23.22          93      0.00      0.04      1.27   260.673      3.86    0.0  100.0
  P_c_138_d_22           100.00           1      0.00      0.01      0.79   306.875      2.50    0.0  100.0
  P_c_139_d_8             18.34         102      0.00      0.00      0.13    18.133      0.01    0.0  100.0
  P_c_137_d_4            100.00           1      0.00      0.00      0.06    57.967      0.00    0.0   99.8
  P_c_122_d_29           100.00           1      0.00      0.01      1.66   347.768   1447.88    0.0   22.8
  P_c_121_d_12           100.00           1      0.00      0.01      0.21   342.536    276.24    0.0   99.0
  P_c_120_d_8            100.00           1      0.00      0.00      0.10    55.324      0.00    0.0   99.9
  P_c_119_d_80           100.00           1      0.00      0.08      7.01  2474.153 15838798.30    0.0  100.0
  P_c_100_d_10           100.00           1      0.00      0.00      0.18    45.678      0.35    0.0   99.9
  P_c_118_d_13            16.15         103      0.00      0.01      0.30    41.868      0.56    0.0  100.0
  P_c_116_d_15           100.00           1      0.00      0.00      0.43   134.608    211.85    0.0   99.0
  P_c_114_d_10           100.00           1      0.00      0.00      0.16    44.935      0.00    0.0   99.9
  P_c_112_d_21           100.00           1      0.00      0.01      1.37   164.538    114.54    0.0    4.0
  P_c_107_d_36           100.00           1      0.00      0.15      1.62  4674.090   2894.78    0.0   99.0
  P_c_107_2_d_12         100.00           1      0.00      0.00      0.18    41.458      0.05    0.0  100.0
  P_c_106_d_13           100.00           1      0.00      0.01      0.24   417.823      0.09    0.0  100.0
  P_c_99_d_41            100.00           1      0.00      0.02      1.77   630.818    404.52    0.0    0.4
  P_c_103_d_8            100.00           1      0.00      0.00      0.11    33.678      0.03    0.0   99.9
  P_c_98_d_20            100.00           1      0.00      0.01      0.50   181.270    295.50    0.0   99.0
  P_aalst_1               14.21        5165      0.00      0.56      0.56  2489.597 124141.46    0.0   93.1
  P_aalst_2               10.14        1830      0.00      0.56      0.56  1788.351  88649.03    0.0   95.9
  P_aalst_3                9.19        1026      0.00      0.49      0.49  1418.797  70112.02    0.0   97.7
  P_aalst_4              100.00           1      0.00      0.39      0.49 12332.153 620811.15    0.0   99.0
  P_pipe_Geldrop         100.00           1      0.00      0.16      0.80  5098.141   5152.60    0.0    4.6
  P_gb127                100.00           1      0.00      0.05      0.32  1583.313    250.73    0.0    4.1
  P_c_99                 100.00           1      0.00      0.02      0.56   630.825   1179.62    0.0    0.4
  P_c_112                100.00           1      0.00      0.01      0.06   158.614    229.61    0.0    4.0
  P_c_119_1              100.00          21      0.00      0.03      0.24   936.828   1630.00    0.0  100.0
  P_c_122                100.00           1      0.00      0.01      0.03   346.271   1130.74    0.0   22.8
  P_c_123                100.00           1      0.00      0.02      0.28   690.496   1550.98    0.0    1.7
  P_c_119_2              100.00           8      0.00      0.02      0.34   691.300   1387.57    0.0  100.0
  P_c_119_3              100.00           9      0.00      0.03      0.39   794.737   1850.91    0.0  100.0
  P_c_119_fr_040         100.00           1      0.00      0.03     10.00   992.639 6332843.80    0.0    0.0
  P_c_119_fr_028         100.00           1      0.00      0.02     10.00   695.747 4433893.96    0.0    0.0
  P_c_119_fr_032         100.00           1      0.00      0.03     10.00   794.711 5067056.96    0.0    0.0
  

  Analysis begun on:  Sat Apr  5 13:54:07 2025
  Analysis ended on:  Sat Apr  5 14:15:58 2025
  Total elapsed time: 00:21:51