
  EPA STORM WATER MANAGEMENT MODEL - VERSION 5.2 (Build 5.2.4)
  PYSWMM TOOLKIT API - VERSION v1.0 (2023-11-27)
  ------------------------------------------------------------

  WARNING 02: maximum depth increased for Node gb127
  
  ****************
  Analysis Options
  ****************
  Flow Units ............... CMS
  Process Models:
    Rainfall/Runoff ........ YES
    RDII ................... NO
    Snowmelt ............... NO
    Groundwater ............ NO
    Flow Routing ........... YES
    Ponding Allowed ........ NO
    Water Quality .......... NO
  Infiltration Method ...... HORTON
  Flow Routing Method ...... DYNWAVE
  Surcharge Method ......... EXTRAN
  Starting Date ............ 04/15/2024 00:00:00
  Ending Date .............. 10/16/2024 00:00:00
  Antecedent Dry Days ...... 0.0
  Report Time Step ......... 00:05:00
  Wet Time Step ............ 00:01:00
  Dry Time Step ............ 00:10:00
  Routing Time Step ........ 5.00 sec
  Variable Time Step ....... YES
  Maximum Trials ........... 12
  Number of Threads ........ 2
  Head Tolerance ........... 0.000200 m
  
  
  *********************
  Rainfall File Summary
  *********************
  Station    First        Last         Recording   Periods    Periods    Periods
  ID         Date         Date         Frequency  w/Precip    Missing    Malfunc.
  -------------------------------------------------------------------------------
  12         01/01/2024   12/31/2024       5 min    105385          0          0

  13         01/01/2024   12/31/2024       5 min    105385          0          0

  14         01/01/2024   12/31/2024       5 min    105385          0          0

  15         01/01/2024   12/31/2024       5 min    105385          0          0

  16         01/01/2024   12/31/2024       5 min    105385          0          0

  17         01/01/2024   12/31/2024       5 min    105385          0          0

  18         01/01/2024   12/31/2024       5 min    105385          0          0

  19         01/01/2024   12/31/2024       5 min    105385          0          0

  20         01/01/2024   12/31/2024       5 min    105385          0          0

  21         01/01/2024   12/31/2024       5 min    105385          0          0

  22         01/01/2024   12/31/2024       5 min    105385          0          0

  23         01/01/2024   12/31/2024       5 min    105385          0          0

  24         01/01/2024   12/31/2024       5 min    105385          0          0

  25         01/01/2024   12/31/2024       5 min    105385          0          0

  26         01/01/2024   12/31/2024       5 min    105385          0          0

  27         01/01/2024   12/31/2024       5 min    105385          0          0

  28         01/01/2024   12/31/2024       5 min    105385          0          0

  29         01/01/2024   12/31/2024       5 min    105385          0          0

  30         01/01/2024   12/31/2024       5 min    105385          0          0

  31         01/01/2024   12/31/2024       5 min    105385          0          0

  32         01/01/2024   12/31/2024       5 min    105385          0          0

  33         01/01/2024   12/31/2024       5 min    105385          0          0

  34         01/01/2024   12/31/2024       5 min    105385          0          0

  35         01/01/2024   12/31/2024       5 min    105385          0          0

  36         01/01/2024   12/31/2024       5 min    105385          0          0

  37         01/01/2024   12/31/2024       5 min    105385          0          0

  38         01/01/2024   12/31/2024       5 min    105385          0          0

  39         01/01/2024   12/31/2024       5 min    105385          0          0

  40         01/01/2024   12/31/2024       5 min    105385          0          0

  
  
  **************************        Volume         Depth
  Runoff Quantity Continuity     hectare-m            mm
  **************************     ---------       -------
  Total Precipitation ......      2173.401       515.183
  Evaporation Loss .........       696.131       165.011
  Infiltration Loss ........         0.000         0.000
  Surface Runoff ...........      1473.981       349.392
  Final Storage ............         3.299         0.782
  Continuity Error (%) .....        -0.000
  
  
  **************************        Volume        Volume
  Flow Routing Continuity        hectare-m      10^6 ltr
  **************************     ---------     ---------
  Dry Weather Inflow .......      1307.450     13074.633
  Wet Weather Inflow .......      1473.981     14739.962
  Groundwater Inflow .......         0.000         0.000
  RDII Inflow ..............         0.000         0.000
  External Inflow ..........       575.286      5752.917
  External Outflow .........      3353.970     33540.053
  Flooding Loss ............         3.241        32.406
  Evaporation Loss .........         0.055         0.551
  Exfiltration Loss ........         0.000         0.000
  Initial Stored Volume ....         0.804         8.043
  Final Stored Volume ......         8.221        82.207
  Continuity Error (%) .....        -0.237
  
  
  ***************************
  Time-Step Critical Elements
  ***************************
  None
  
  
  ********************************
  Highest Flow Instability Indexes
  ********************************
  Link P_riool_zuid_out (5)
  Link Con_117 (4)
  Link Con_152 (4)
  Link Con_116 (4)
  Link Con_153 (3)
  
  
  *********************************
  Most Frequent Nonconverging Nodes
  *********************************
  Node cso_Geldrop (3.33%)
  Node cso_gb_136 (3.33%)
  Node cso_RZ (3.33%)
  Node cso_ES_1 (3.33%)
  Node cso_AALST (3.33%)
  
  
  *************************
  Routing Time Step Summary
  *************************
  Minimum Time Step           :     4.50 sec
  Average Time Step           :     5.00 sec
  Maximum Time Step           :     5.00 sec
  % of Time in Steady State   :     0.00
  Average Iterations per Step :     2.41
  % of Steps Not Converging   :     3.33
  Time Step Frequencies       :
      5.000 -  3.155 sec      :   100.00 %
      3.155 -  1.991 sec      :     0.00 %
      1.991 -  1.256 sec      :     0.00 %
      1.256 -  0.792 sec      :     0.00 %
      0.792 -  0.500 sec      :     0.00 %
  
  
  ***************************
  Subcatchment Runoff Summary
  ***************************
  
  ------------------------------------------------------------------------------------------------------------------------------
                            Total      Total      Total      Total     Imperv       Perv      Total       Total     Peak  Runoff
                           Precip      Runon       Evap      Infil     Runoff     Runoff     Runoff      Runoff   Runoff   Coeff
  Subcatchment                 mm         mm         mm         mm         mm         mm         mm    10^6 ltr      CMS
  ------------------------------------------------------------------------------------------------------------------------------
  c_24_catchment           544.08       0.00     173.01       0.00     369.98       0.00     369.98     7099.25    33.63   0.680
  c_23_catchment           544.08       0.00     176.54       0.00     366.34       0.00     366.34       10.99     0.05   0.673
  c_22_catchment           544.08       0.00     176.54       0.00     366.34       0.00     366.34        5.86     0.03   0.673
  c_21_catchment           544.08       0.00     176.54       0.00     366.34       0.00     366.34       11.72     0.05   0.673
  c_12_catchment           544.08       0.00     176.54       0.00     366.34       0.00     366.34       13.55     0.06   0.673
  c_20_catchment           544.08       0.00     176.54       0.00     366.34       0.00     366.34       36.63     0.16   0.673
  c_19_catchment           544.08       0.00     176.54       0.00     366.34       0.00     366.34       12.46     0.05   0.673
  c_10_catchment           544.08       0.00     193.84       0.00     348.44       0.00     348.44       21.60     0.07   0.640
  c_16_catchment           544.08       0.00     176.54       0.00     366.34       0.00     366.34       96.71     0.42   0.673
  c_15_catchment           544.08       0.00     176.54       0.00     366.34       0.00     366.34      124.19     0.55   0.673
  c_14_catchment           544.08       0.00     176.54       0.00     366.34       0.00     366.34      130.42     0.57   0.673
  c_129_catchment          494.63       0.00     148.79       0.00     345.85       0.00     345.85       17.29     0.17   0.699
  c_128_catchment          494.63       0.00     153.35       0.00     341.29       0.00     341.29      870.63     7.96   0.690
  c_1285_catchment         494.63       0.00     150.31       0.00     344.33       0.00     344.33       19.97     0.20   0.696
  c_127_catchment          505.69       0.00     145.57       0.00     359.70       0.00     359.70      485.24     5.54   0.711
  c_126_catchment          505.69       0.00     146.93       0.00     358.31       0.00     358.31       56.61     0.62   0.709
  c_125_catchment          505.69       0.00     139.31       0.00     366.18       0.00     366.18       19.41     0.26   0.724
  c_124_catchment          513.70       0.00     138.77       0.00     374.96       0.00     374.96        3.75     0.03   0.730
  c_136_catchment          460.72       0.00     161.50       0.00     298.87       0.00     298.87      150.93     1.39   0.649
  c_135_catchment          460.72       0.00     158.42       0.00     302.07       0.00     302.07       66.46     0.67   0.656
  c_131_catchment          471.36       0.00     160.01       0.00     310.31       0.00     310.31       66.72     0.44   0.658
  c_130_catchment          471.36       0.00     151.25       0.00     319.36       0.00     319.36       12.45     0.11   0.678
  c_134_catchment          460.72       0.00     157.89       0.00     302.63       0.00     302.63       16.04     0.16   0.657
  c_132_catchment          473.78       0.00     151.61       0.00     321.97       0.00     321.97       12.56     0.08   0.680
  c_150_catchment          517.06       0.00     157.09       0.00     359.11       0.00     359.11      736.17     5.79   0.695
  c_123_catchment          470.47       0.00     154.74       0.00     314.93       0.00     314.93      319.65     3.05   0.669
  c_143_catchment          505.67       0.00     173.79       0.00     330.69       0.00     330.69     1018.54     4.19   0.654
  c_147_catchment          505.67       0.00     152.00       0.00     353.21       0.00     353.21       15.19     0.09   0.698
  c_160_catchment          518.55       0.00     156.02       0.00     361.74       0.00     361.74       18.09     0.23   0.698
  c_145_catchment          505.67       0.00     146.23       0.00     359.12       0.00     359.12        3.59     0.02   0.710
  c_144_catchment          505.67       0.00     158.18       0.00     346.85       0.00     346.85       79.08     0.43   0.686
  c_142_catchment          505.67       0.00     158.97       0.00     346.03       0.00     346.03      265.75     1.44   0.684
  c_148_catchment          505.67       0.00     153.42       0.00     351.75       0.00     351.75       39.40     0.23   0.696
  c_149_catchment          505.67       0.00     159.05       0.00     345.95       0.00     345.95       63.31     0.34   0.684
  c_151_catchment          505.67       0.00     156.36       0.00     348.73       0.00     348.73      102.53     0.58   0.690
  c_161_catchment          518.55       0.00     163.35       0.00     354.24       0.00     354.24      240.88     2.69   0.683
  c_138_catchment          505.67       0.00     157.55       0.00     347.50       0.00     347.50      100.43     0.56   0.687
  c_139_catchment          505.67       0.00     152.64       0.00     352.55       0.00     352.55       16.22     0.10   0.697
  c_137_catchment          538.33       0.00     146.52       0.00     391.68       0.00     391.68        3.92     0.06   0.728
  c_122_catchment          461.06       0.00     144.42       0.00     316.61       0.00     316.61      165.27     1.95   0.687
  c_121_catchment          462.00       0.00     166.39       0.00     295.23       0.00     295.23       30.41     0.23   0.639
  c_120_catchment          479.58       0.00     155.04       0.00     324.55       0.00     324.55       15.90     0.12   0.677
  c_119_catchment          472.23       0.00     155.03       0.00     316.97       0.00     316.97     1245.71    10.98   0.671
  c_100_catchment          408.29       0.00     141.17       0.00     267.12       0.00     267.12       17.90     0.13   0.654
  c_118_catchment          472.23       0.00     146.04       0.00     326.20       0.00     326.20       36.86     0.39   0.691
  c_116_catchment          449.10       0.00     153.38       0.00     295.73       0.00     295.73       38.15     0.40   0.658
  c_114_catchment          453.50       0.00     151.17       0.00     302.34       0.00     302.34       18.44     0.17   0.667
  c_112_catchment          437.54       0.00     138.29       0.00     299.26       0.00     299.26       85.29     0.99   0.684
  c_107_catchment          463.24       0.00     157.95       0.00     305.24       0.00     305.24      235.64     1.98   0.659
  c_107_2_catchment        472.90       0.00     156.19       0.00     316.72       0.00     316.72       28.50     0.26   0.670
  c_106_catchment          463.24       0.00     152.97       0.00     310.27       0.00     310.27       35.06     0.35   0.670
  c_99_catchment           458.01       0.00     155.55       0.00     302.47       0.00     302.47      313.66     2.21   0.660
  c_103_catchment          451.55       0.00     146.43       0.00     305.12       0.00     305.12       11.59     0.14   0.676
  c_98_catchment           447.92       0.00     152.85       0.00     295.08       0.00     295.08       77.31     0.63   0.659
  
  
  ******************
  Node Depth Summary
  ******************
  
  ---------------------------------------------------------------------------------
                                 Average  Maximum  Maximum  Time of Max    Reported
                                   Depth    Depth      HGL   Occurrence   Max Depth
  Node                 Type       Meters   Meters   Meters  days hr:min      Meters
  ---------------------------------------------------------------------------------
  Nod_100              JUNCTION     0.65     2.97    17.45     0  00:00        2.97
  Nod_890              JUNCTION     0.60     2.14    15.07    51  08:41        2.14
  Nod_891              JUNCTION     0.53     2.07    15.07    51  08:42        2.07
  Nod_892              JUNCTION     0.47     2.01    15.07    51  08:42        2.01
  Nod_A*HLCMRZ1135     JUNCTION     0.69     2.23    15.07    51  08:42        2.23
  Nod_103              JUNCTION     0.45     1.02    14.99    51  08:35        1.02
  Nod_104              JUNCTION     0.35     0.84    14.62    51  08:35        0.84
  Nod_105              JUNCTION     0.36     0.85    14.61    51  08:35        0.85
  Nod_106              JUNCTION     0.44     0.92    14.49    51  08:36        0.92
  Nod_107              JUNCTION     0.44     0.91    14.46    51  08:37        0.91
  Nod_108              JUNCTION     0.94     2.96    14.16    51  08:39        2.96
  Nod_109              JUNCTION     0.32     2.63    14.15    51  08:40        2.63
  Nod_110              JUNCTION     0.45     1.59    15.13    51  08:38        1.59
  Nod_111              JUNCTION     0.42     1.64    15.11    51  08:39        1.64
  Nod_112              JUNCTION     0.69     2.23    15.07    51  08:41        2.23
  Nod_113              JUNCTION     0.72     2.26    15.06    51  08:41        2.26
  Nod_114              JUNCTION     0.49     2.26    15.03    51  08:42        2.26
  Nod_115              JUNCTION     0.50     2.31    15.01    51  08:42        2.31
  Nod_116              JUNCTION     0.50     2.33    15.00    51  08:42        2.33
  Nod_117              JUNCTION     0.53     2.58    14.85    51  08:42        2.58
  Nod_118              JUNCTION     0.60     2.81    14.72    51  08:42        2.81
  Nod_119              JUNCTION     0.34     2.71    14.15    51  08:40        2.71
  Nod_120              JUNCTION     0.34     2.78    14.15    51  08:40        2.78
  Nod_121              JUNCTION     0.38     2.89    14.15    51  08:40        2.89
  Nod_122              JUNCTION     0.47     3.01    14.15    51  08:40        3.01
  Nod_123              JUNCTION     0.52     3.06    14.15    51  08:40        3.06
  Nod_124              JUNCTION     0.33     3.10    14.11    51  08:41        3.10
  Nod_126              JUNCTION     0.52     1.27    18.44   133  06:04        1.27
  Nod_127              JUNCTION     0.70     1.43    19.44   109  00:01        1.43
  Nod_128              JUNCTION     0.32     0.82    18.54   133  06:06        0.82
  Nod_129              JUNCTION     0.46     0.91    16.55   133  06:37        0.91
  Nod_130              JUNCTION     0.32     1.70    16.76     0  00:05        1.70
  Nod_131              JUNCTION     0.47     1.79    16.33     0  00:05        1.79
  Nod_132              JUNCTION     0.46     1.36    15.69     0  00:06        1.22
  Nod_133              JUNCTION     0.47     1.35    15.63     0  00:06        1.24
  Nod_134              JUNCTION     0.50     1.31    15.41    51  08:36        1.31
  Nod_135              JUNCTION     0.52     1.33    15.38    51  08:36        1.33
  Nod_136              JUNCTION     0.57     1.39    15.32    51  08:37        1.39
  Nod_222              JUNCTION     1.32     3.50    14.70    51  08:42        3.50
  Nod_233              JUNCTION     0.64     2.89    14.41    51  08:41        2.89
  Nod_244              JUNCTION     0.64     2.91    14.35    51  08:41        2.91
  Nod_266              JUNCTION     0.61     2.92    14.29    51  08:41        2.92
  Nod_277              JUNCTION     0.59     2.96    14.22    51  08:41        2.96
  J1                   JUNCTION     1.94     4.00    19.06     0  03:08        4.00
  J119                 JUNCTION   469.26  34491.84  34491.84   104  01:20    34491.84
  cso_Geldrop          OUTFALL      0.00     0.00     4.62     0  00:00        0.00
  cso_gb_136           OUTFALL      0.00     0.00     1.00     0  00:00        0.00
  cso_RZ               OUTFALL      0.00     0.00    16.07     0  00:00        0.00
  cso_ES_1             OUTFALL      0.00     0.00     0.00     0  00:00        0.00
  cso_AALST            OUTFALL      0.00     0.00     0.00     0  00:00        0.00
  out_ES               OUTFALL      0.00     0.00     0.00     0  00:00        0.00
  out_RZ               OUTFALL      0.00     0.00     0.00     0  00:00        0.00
  cso_gb127            OUTFALL      0.00     0.00     0.00     0  00:00        0.00
  cso_c_122            OUTFALL      0.00     0.00     0.00     0  00:00        0.00
  cso_c_119_1          OUTFALL      0.00     0.00     0.00     0  00:00        0.00
  cso_c_112            OUTFALL      0.00     0.00     0.00     0  00:00        0.00
  cso_c_99             OUTFALL      0.00     0.00     0.00     0  00:00        0.00
  cso_c_123            OUTFALL      0.00     0.00     0.00     0  00:00        0.00
  cso_c_119_2          OUTFALL      0.00     0.00     0.00     0  00:00        0.00
  cso_c_119_3          OUTFALL      0.00     0.00     0.00     0  00:00        0.00
  c_24_vr_storage_5    STORAGE      0.00     0.01     0.01    35  18:00        0.01
  c_23_vr_storage_7    STORAGE      0.00     0.00     0.00    35  18:01        0.00
  c_22_vr_storage_5    STORAGE      0.00     0.00     0.00    35  18:00        0.00
  c_21_vr_storage_7    STORAGE      0.00     0.00     0.00    35  18:01        0.00
  c_12_vr_storage_8    STORAGE      0.00     0.00     0.00    35  18:04        0.00
  c_20_vr_storage_13   STORAGE      0.00     0.00     0.00    35  18:05        0.00
  c_19_vr_storage_7    STORAGE      0.00     0.00     0.00    35  18:00        0.00
  c_10_vr_storage_10   STORAGE      0.00     0.00     0.00    87  19:05        0.00
  c_16_vr_storage_20   STORAGE      0.00     0.00     0.00    35  18:06        0.00
  c_15_vr_storage_24   STORAGE      0.00     0.00     0.00    35  18:10        0.00
  c_14_vr_storage_24   STORAGE      0.00     0.00     0.00    35  18:10        0.00
  pipe_ES              STORAGE      0.34     2.86     2.86    87  19:15        2.86
  pipe_Geldrop         STORAGE      0.11     2.92    17.98   104  00:20        2.92
  gb_136               STORAGE      0.03     0.94    17.39   104  00:20        0.94
  c_129_vr_storage_5   STORAGE      0.00     0.00     0.00   104  00:00        0.00
  c_128_vr_storage_5   STORAGE      0.00     0.00     0.00   104  00:00        0.00
  c_1285_vr_storage_5  STORAGE      0.00     0.00     0.00   104  00:00        0.00
  c_127_vr_storage_5   STORAGE      0.00     0.00     0.00   122  20:00        0.00
  c_126_vr_storage_5   STORAGE      0.00     0.00     0.00   122  20:00        0.00
  c_125_vr_storage_5   STORAGE      0.00     0.00     0.00   122  20:00        0.00
  c_124_storage        STORAGE      0.04     0.06    14.28   181  23:51        0.06
  c_136_vr_storage_5   STORAGE      0.00     0.00     0.00   104  00:05        0.00
  c_135_vr_storage_5   STORAGE      0.00     0.00     0.00   104  00:00        0.00
  c_131_vr_storage_5   STORAGE      0.00     0.00     0.00   104  00:02        0.00
  c_130_vr_storage_5   STORAGE      0.00     0.00     0.00   104  00:00        0.00
  c_134_vr_storage_5   STORAGE      0.00     0.00     0.00   104  00:00        0.00
  c_132_vr_storage_5   STORAGE      0.00     0.00     0.00   104  00:00        0.00
  Aalst_gemaal         STORAGE      0.29     2.50     2.50    35  21:36        2.50
  pre_ontvangstkelder  STORAGE      5.19    24.59    14.09    51  08:41       24.59
  c_150_vr_storage_57  STORAGE      0.00     0.01     0.01    35  18:20        0.01
  c_123_vr_storage_40  STORAGE      0.00     0.01     0.01   104  00:18        0.01
  c_143_vr_storage_70  STORAGE      0.00     0.03     0.03    87  19:40        0.03
  c_147_vr_storage_4   STORAGE      0.00     0.00     0.00    87  19:00        0.00
  c_160_vr_storage_8   STORAGE      0.00     0.00     0.00    35  17:01        0.00
  c_145_vr_storage_4   STORAGE      0.00     0.00     0.00    87  19:00        0.00
  c_144_vr_storage_19  STORAGE      0.00     0.00     0.00    87  19:05        0.00
  c_142_vr_storage_35  STORAGE      0.00     0.00     0.00    87  19:10        0.00
  c_148_vr_storage_12  STORAGE      0.00     0.00     0.00    87  19:01        0.00
  c_149_vr_storage_17  STORAGE      0.00     0.00     0.00    87  19:03        0.00
  c_151_vr_storage_22  STORAGE      0.00     0.00     0.00    87  19:04        0.00
  c_161_vr_storage_32  STORAGE      0.00     0.00     0.00    35  17:10        0.00
  c_138_vr_storage_22  STORAGE      0.00     0.00     0.00    87  19:05        0.00
  c_139_vr_storage_8   STORAGE      0.00     0.00     0.00    87  19:01        0.00
  c_137_vr_storage_4   STORAGE      0.00     0.00     0.00    35  17:00        0.00
  c_122_vr_storage_29  STORAGE      0.00     0.00     0.00   104  00:04        0.00
  c_121_vr_storage_12  STORAGE      0.00     0.00     0.00    35  17:05        0.00
  c_120_vr_storage_8   STORAGE      0.00     0.00     0.00    87  19:01        0.00
  c_119_vr_storage_80  STORAGE      0.00     0.04     0.04   104  00:40        0.04
  c_100_vr_storage_10  STORAGE      0.00     0.00     0.00   104  00:00        0.00
  c_118_vr_storage_13  STORAGE      0.00     0.00     0.00   104  00:01        0.00
  c_116_vr_storage_15  STORAGE      0.00     0.00     0.00   104  00:03        0.00
  c_114_vr_storage_10  STORAGE      0.00     0.00     0.00   104  00:00        0.00
  c_112_vr_storage_21  STORAGE      0.00     0.00     0.00   104  00:00        0.00
  c_107_vr_storage_36  STORAGE      0.00     0.00     0.00    35  17:20        0.00
  c_107_2_vr_storage_12 STORAGE      0.00     0.00     0.00    35  17:02        0.00
  c_106_vr_storage_13  STORAGE      0.00     0.00     0.00    35  17:04        0.00
  c_99_vr_storage_41   STORAGE      0.00     0.00     0.00   104  00:09        0.00
  c_103_vr_storage_8   STORAGE      0.00     0.00     0.00    35  17:00        0.00
  c_98_vr_storage_20   STORAGE      0.00     0.00     0.00    35  17:06        0.00
  gb127                STORAGE      0.03     0.98     0.98   122  20:05        0.98
  c_123                STORAGE      0.18    17.15    17.15   104  04:40       17.15
  c_122                STORAGE      1.23     8.00     8.00    93  00:30        8.00
  c_112                STORAGE      0.05     1.74     1.74   104  00:20        1.74
  c_99                 STORAGE      0.04     9.75     9.75   104  03:05        9.75
  c_119_1              STORAGE      0.23     5.11     5.11   104  01:25        5.11
  c_119_2              STORAGE      0.11     7.08     7.08   104  01:25        7.08
  c_119_3              STORAGE      0.19    20.00    20.00   104  03:51       20.00
  
  
  *******************
  Node Inflow Summary
  *******************
  
  -------------------------------------------------------------------------------------------------
                                  Maximum  Maximum                  Lateral       Total        Flow
                                  Lateral    Total  Time of Max      Inflow      Inflow     Balance
                                   Inflow   Inflow   Occurrence      Volume      Volume       Error
  Node                 Type           CMS      CMS  days hr:min    10^6 ltr    10^6 ltr     Percent
  -------------------------------------------------------------------------------------------------
  Nod_100              JUNCTION     0.000   10.019     0  00:00           0    2.31e+03       0.000
  Nod_890              JUNCTION     0.000    0.727     0  00:31           0         143       0.163
  Nod_891              JUNCTION     0.000    0.446     0  00:28           0        75.3       0.155
  Nod_892              JUNCTION     0.000    0.264     0  00:30           0        28.2       0.173
  Nod_A*HLCMRZ1135     JUNCTION     0.000    0.315     0  00:00           0        5.23       0.740
  Nod_103              JUNCTION     0.000    0.816     0  00:05           0     2.3e+03       0.071
  Nod_104              JUNCTION     0.000    0.592    49  14:17           0    2.39e+03       0.001
  Nod_105              JUNCTION     0.000    0.547    49  14:35           0    2.31e+03      -0.002
  Nod_106              JUNCTION     0.000    0.550    49  14:28           0    2.31e+03       0.000
  Nod_107              JUNCTION     0.000    0.554    49  14:23           0    2.31e+03       0.344
  Nod_108              JUNCTION     0.000    0.572    49  14:16           0     2.3e+03      -0.177
  Nod_109              JUNCTION     0.000    0.663   138  19:44           0     2.3e+03      -0.014
  Nod_110              JUNCTION     0.000    2.515   105  05:07           0    1.26e+04       0.007
  Nod_111              JUNCTION     0.000    2.524   105  05:05           0    1.26e+04       0.003
  Nod_112              JUNCTION     0.000    2.545   105  05:05           0    1.27e+04      -0.010
  Nod_113              JUNCTION     0.000    2.556   105  05:05           0    1.26e+04       0.002
  Nod_114              JUNCTION     0.000    2.564   105  05:03           0    1.26e+04      -0.000
  Nod_115              JUNCTION     0.000    2.602    88  20:52           0    1.26e+04       0.000
  Nod_116              JUNCTION     0.000    2.602    88  20:52           0    1.26e+04       0.001
  Nod_117              JUNCTION     0.000    2.602    88  21:40           0    1.26e+04       0.025
  Nod_118              JUNCTION     0.000    4.377   151  02:08           0     1.4e+04       0.028
  Nod_119              JUNCTION     0.000    0.981     0  00:01           0     2.3e+03      -0.001
  Nod_120              JUNCTION     0.000    0.732    39  04:30           0     2.3e+03      -0.002
  Nod_121              JUNCTION     0.000    0.786    39  04:34           0     2.3e+03      -0.005
  Nod_122              JUNCTION     0.000    0.864    39  04:41           0     2.3e+03      -0.002
  Nod_123              JUNCTION     0.000    3.029    51  08:35           0    1.49e+04      -0.000
  Nod_124              JUNCTION     0.000    3.116     6  22:57           0    1.49e+04      -0.000
  Nod_126              JUNCTION     0.000    2.100   133  06:19           0    1.11e+04      -0.004
  Nod_127              JUNCTION     0.000    2.100     0  00:05           0    1.11e+04       0.002
  Nod_128              JUNCTION     0.000    2.115   109  00:09           0    1.11e+04      -0.004
  Nod_129              JUNCTION     0.000    3.362     0  00:04           0    1.11e+04      -0.003
  Nod_130              JUNCTION     0.000   10.684     0  00:00           0    1.26e+04       0.000
  Nod_131              JUNCTION     0.000    9.524     0  00:01           0    1.26e+04       0.000
  Nod_132              JUNCTION     0.000    7.085     0  00:05           0    1.26e+04       0.000
  Nod_133              JUNCTION     0.000    5.300     0  00:05           0    1.26e+04       0.000
  Nod_134              JUNCTION     0.000    4.544     0  00:06           0    1.26e+04       0.001
  Nod_135              JUNCTION     0.000    3.589     0  00:07           0    1.26e+04       0.000
  Nod_136              JUNCTION     0.000    3.296     0  00:09           0    1.26e+04       0.013
  Nod_222              JUNCTION     0.000    5.784   151  02:18           0     1.4e+04      -0.035
  Nod_233              JUNCTION     0.000    2.714   151  02:51           0    1.26e+04      -0.014
  Nod_244              JUNCTION     0.000    2.610    88  21:43           0    1.26e+04      -0.003
  Nod_266              JUNCTION     0.000    2.610    88  21:43           0    1.26e+04      -0.000
  Nod_277              JUNCTION     0.000    2.610    88  21:43           0    1.26e+04      -0.000
  J1                   JUNCTION     0.000    0.800     6  14:35           0    3.07e+03      -0.538
  J119                 JUNCTION     0.000   11.458   104  01:15           0     1.8e+03      -0.498
  cso_Geldrop          OUTFALL      0.000    6.173   104  00:20           0        63.5       0.000
  cso_gb_136           OUTFALL      0.000    2.431   104  00:20           0        27.8       0.000
  cso_RZ               OUTFALL      0.000    0.000     0  00:00           0           0       0.000 ltr
  cso_ES_1             OUTFALL      0.000   25.779    87  19:15           0         732       0.000
  cso_AALST            OUTFALL      0.000    2.035    35  21:37           0         142       0.000
  out_ES               OUTFALL      0.000    3.888    17  19:18           0    1.74e+04       0.000
  out_RZ               OUTFALL      0.000    3.029    51  08:41           0    1.49e+04       0.000
  cso_gb127            OUTFALL      0.000    5.127   122  20:05           0         109       0.000
  cso_c_122            OUTFALL      0.000    0.881    93  00:30           0        14.9       0.000
  cso_c_119_1          OUTFALL      0.000    4.340   104  01:25           0         117       0.000
  cso_c_112            OUTFALL      0.000    0.926   104  00:20           0        10.4       0.000
  cso_c_99             OUTFALL      0.000    0.000     0  00:00           0           0       0.000 ltr
  cso_c_123            OUTFALL      0.000    0.000     0  00:00           0           0       0.000 ltr
  cso_c_119_2          OUTFALL      0.000    2.865   104  01:25           0        19.6       0.000
  cso_c_119_3          OUTFALL      0.000    0.000     0  00:00           0           0       0.000 ltr
  c_24_vr_storage_5    STORAGE     34.343   36.178    35  18:00    1.76e+04    1.81e+04      -0.000
  c_23_vr_storage_7    STORAGE      0.050    0.050    35  18:00        27.2        27.2      -0.000
  c_22_vr_storage_5    STORAGE      0.026    0.026    35  18:00        5.86        5.86      -0.000
  c_21_vr_storage_7    STORAGE      0.053    0.053    35  18:00          27          27      -0.000
  c_12_vr_storage_8    STORAGE      0.062    0.062    35  18:00        38.9        38.9      -0.000
  c_20_vr_storage_13   STORAGE      0.161    0.161    35  18:00        36.6        36.6      -0.000
  c_19_vr_storage_7    STORAGE      0.056    0.056    35  18:00        24.6        24.6      -0.000
  c_10_vr_storage_10   STORAGE      0.067    0.067    87  19:00        21.6        21.6      -0.000
  c_16_vr_storage_20   STORAGE      0.425    0.425    35  18:00        96.7        96.7      -0.000
  c_15_vr_storage_24   STORAGE      0.548    0.548    35  18:00         142         142      -0.000
  c_14_vr_storage_24   STORAGE      0.573    0.573    35  18:00         130         130      -0.000
  pipe_ES              STORAGE      0.000   36.102    35  18:00           0    1.81e+04       0.000
  pipe_Geldrop         STORAGE      0.000    8.692   104  00:00           0    3.14e+03      -0.001
  gb_136               STORAGE      0.000    2.819   104  00:05           0         796      -0.001
  c_129_vr_storage_5   STORAGE      0.175    0.175   104  00:00        17.3        17.3      -0.000
  c_128_vr_storage_5   STORAGE      8.024    8.710   104  00:00    2.13e+03    3.14e+03       0.000
  c_1285_vr_storage_5  STORAGE      0.196    0.196   104  00:00        27.3        27.3      -0.000
  c_127_vr_storage_5   STORAGE      5.551    6.444   122  20:00         612    1.07e+03       0.000
  c_126_vr_storage_5   STORAGE      0.640    0.896   122  20:00         437         461      -0.000
  c_125_vr_storage_5   STORAGE      0.256    0.256   122  20:00        24.3        24.3      -0.000
  c_124_storage        STORAGE      0.035    0.090   104  00:00        70.7         156       0.005
  c_136_vr_storage_5   STORAGE      1.408    2.853   104  00:00         491         796       0.000
  c_135_vr_storage_5   STORAGE      0.666    0.666   104  00:00         115         115      -0.000
  c_131_vr_storage_5   STORAGE      0.440    0.546   104  00:00         113         140      -0.000
  c_130_vr_storage_5   STORAGE      0.107    0.107   104  00:00        26.6        26.6      -0.000
  c_134_vr_storage_5   STORAGE      0.163    0.163   104  00:00        26.5        26.5      -0.000
  c_132_vr_storage_5   STORAGE      0.076    0.076   104  00:00        22.9        22.9      -0.000
  Aalst_gemaal         STORAGE      0.000   16.534    35  18:50           0    1.12e+04      -0.593
  pre_ontvangstkelder  STORAGE      0.000    5.166   123  00:52           0    1.49e+04       0.027
  c_150_vr_storage_57  STORAGE      5.807    5.807    35  18:00    1.01e+03    1.01e+03      -0.000
  c_123_vr_storage_40  STORAGE      3.049    3.049   104  00:00         469         469      -0.000
  c_143_vr_storage_70  STORAGE      4.288    8.616    87  19:00    2.35e+03    4.38e+03       0.000
  c_147_vr_storage_4   STORAGE      0.092    0.092    87  19:00        15.2        15.2      -0.000
  c_160_vr_storage_8   STORAGE      0.290    0.290    35  17:00         828         828      -0.000
  c_145_vr_storage_4   STORAGE      0.024    0.024    87  19:00        14.2        14.2      -0.000
  c_144_vr_storage_19  STORAGE      0.435    0.435    87  19:00         106         106      -0.000
  c_142_vr_storage_35  STORAGE      1.445    1.445    87  19:00         395         395      -0.000
  c_148_vr_storage_12  STORAGE      0.235    0.235    87  19:00        53.7        53.7      -0.000
  c_149_vr_storage_17  STORAGE      0.341    0.341    87  19:00        63.3        63.3      -0.000
  c_151_vr_storage_22  STORAGE      0.581    0.581    87  19:00         113         113      -0.000
  c_161_vr_storage_32  STORAGE      2.692    2.692    35  17:00         241         241      -0.000
  c_138_vr_storage_22  STORAGE      0.561    0.665    87  19:00         160         208      -0.000
  c_139_vr_storage_8   STORAGE      0.097    0.097    87  19:00        16.2        16.2      -0.000
  c_137_vr_storage_4   STORAGE      0.064    0.064    35  17:00        31.1        31.1      -0.000
  c_122_vr_storage_29  STORAGE      1.954    1.954   104  00:00         242         242      -0.000
  c_121_vr_storage_12  STORAGE      0.239    0.312    35  17:00         157         192      -0.000
  c_120_vr_storage_8   STORAGE      0.119    0.119    87  19:00        34.8        34.8      -0.000
  c_119_vr_storage_80  STORAGE     10.987   11.482   104  00:00    1.74e+03     1.8e+03      -0.000
  c_100_vr_storage_10  STORAGE      0.127    0.127   104  00:00        28.4        28.4      -0.000
  c_118_vr_storage_13  STORAGE      0.390    0.390   104  00:00        36.9        36.9      -0.000
  c_116_vr_storage_15  STORAGE      0.405    0.576   104  00:00        59.6        89.3      -0.000
  c_114_vr_storage_10  STORAGE      0.175    0.175   104  00:00        29.7        29.7      -0.000
  c_112_vr_storage_21  STORAGE      0.987    0.987   104  00:00         114         114      -0.000
  c_107_vr_storage_36  STORAGE      2.109    2.682    35  17:00    2.22e+03    2.48e+03       0.000
  c_107_2_vr_storage_12 STORAGE      0.262    0.262    35  17:00          33          33      -0.000
  c_106_vr_storage_13  STORAGE      0.364    0.364    35  17:00         225         225      -0.000
  c_99_vr_storage_41   STORAGE      2.212    2.262   104  00:00         428         449      -0.000
  c_103_vr_storage_8   STORAGE      0.143    0.143    35  17:00        21.5        21.5      -0.000
  c_98_vr_storage_20   STORAGE      0.632    0.632    35  17:00         121         121      -0.000
  gb127                STORAGE      0.000    6.399   122  20:00           0    1.07e+03      -0.002
  c_123                STORAGE      0.000    3.047   104  00:35           0         469      -0.003
  c_122                STORAGE      0.000    1.953   104  00:25           0         242      -0.001
  c_112                STORAGE      0.000    0.987   104  00:15           0         114      -0.004
  c_99                 STORAGE      0.000    2.262   104  00:35           0         449      -0.003
  c_119_1              STORAGE      0.000   10.000     0  00:00           0         724      -0.001
  c_119_2              STORAGE      0.000   10.000     0  00:00           0         508      -0.001
  c_119_3              STORAGE      0.000   10.000     0  00:00           0         580      -0.001
  
  
  **********************
  Node Surcharge Summary
  **********************
  
  Surcharging occurs when water rises above the top of the highest conduit.
  ---------------------------------------------------------------------
                                               Max. Height   Min. Depth
                                   Hours       Above Crown    Below Rim
  Node                 Type      Surcharged         Meters       Meters
  ---------------------------------------------------------------------
  Nod_100              JUNCTION      368.48          1.750        0.000
  Nod_890              JUNCTION       17.53          0.036        0.864
  Nod_108              JUNCTION       51.73          0.087        6.843
  Nod_109              JUNCTION      266.67          0.831       25.849
  Nod_114              JUNCTION       74.85          0.161        5.969
  Nod_115              JUNCTION      157.07          0.508        5.992
  Nod_116              JUNCTION      163.61          0.526        6.004
  Nod_117              JUNCTION      235.41          0.783        6.147
  Nod_118              JUNCTION      275.28          0.923        6.277
  Nod_119              JUNCTION      290.16          0.910       25.850
  Nod_120              JUNCTION      313.42          0.978       25.852
  Nod_121              JUNCTION      350.97          1.087       25.853
  Nod_122              JUNCTION      384.33          1.206       25.854
  Nod_123              JUNCTION      395.73          1.255       25.855
  Nod_124              JUNCTION      408.68          1.301       25.889
  Nod_222              JUNCTION      310.28          1.051        6.299
  Nod_233              JUNCTION      344.49          1.094       25.586
  Nod_244              JUNCTION      351.75          1.114       25.646
  Nod_266              JUNCTION      355.29          1.118       25.712
  Nod_277              JUNCTION      370.64          1.163       25.777
  J1                   JUNCTION     4416.00          4.000        0.000
  J119                 JUNCTION     4416.00      34491.840    99965507.160
  
  
  *********************
  Node Flooding Summary
  *********************
  
  Flooding refers to all water that overflows a node, whether it ponds or not.
  --------------------------------------------------------------------------
                                                             Total   Maximum
                                 Maximum   Time of Max       Flood    Ponded
                        Hours       Rate    Occurrence      Volume     Depth
  Node                 Flooded       CMS   days hr:min    10^6 ltr    Meters
  --------------------------------------------------------------------------
  Nod_100                 0.12     9.960      0  00:00       2.789     0.000
  J1                    615.62     0.313    133  03:20      12.848     0.000
  Aalst_gemaal            4.50     2.153     87  22:03      15.302     0.000
  c_119_3                 1.57     0.550    104  03:51       1.455     0.000
  
  
  **********************
  Storage Volume Summary
  **********************
  
  ------------------------------------------------------------------------------------------------
                         Average    Avg   Evap  Exfil     Maximum    Max    Time of Max    Maximum
                          Volume   Pcnt   Pcnt   Pcnt      Volume   Pcnt     Occurrence    Outflow
  Storage Unit           1000 m³   Full   Loss   Loss     1000 m³   Full    days hr:min        CMS
  ------------------------------------------------------------------------------------------------
  c_24_vr_storage_5        0.203    0.0    0.0    0.0       5.770    0.1      35  18:00     36.102
  c_23_vr_storage_7        0.000    0.0    0.0    0.0       0.008    0.0      35  18:01      0.050
  c_22_vr_storage_5        0.000    0.0    0.0    0.0       0.004    0.0      35  18:00      0.026
  c_21_vr_storage_7        0.000    0.0    0.0    0.0       0.008    0.0      35  18:01      0.053
  c_12_vr_storage_8        0.001    0.0    0.0    0.0       0.028    0.0      35  18:04      0.062
  c_20_vr_storage_13       0.002    0.0    0.0    0.0       0.119    0.0      35  18:05      0.161
  c_19_vr_storage_7        0.000    0.0    0.0    0.0       0.009    0.0      35  18:00      0.056
  c_10_vr_storage_10       0.001    0.0    0.0    0.0       0.030    0.0      87  19:05      0.067
  c_16_vr_storage_20       0.006    0.0    0.0    0.0       0.434    0.0      35  18:06      0.425
  c_15_vr_storage_24       0.012    0.0    0.0    0.0       0.712    0.0      35  18:10      0.547
  c_14_vr_storage_24       0.011    0.0    0.0    0.0       0.745    0.0      35  18:10      0.573
  pipe_ES                 22.160   11.2    0.0    0.0     188.672   95.3      87  19:15     29.667
  pipe_Geldrop             1.094    2.2    0.0    0.0      29.183   58.4     104  00:20      6.973
  gb_136                   0.305    2.0    0.0    0.0       9.375   62.5     104  00:20      2.622
  c_129_vr_storage_5       0.000    0.0    0.0    0.0       0.027    0.0     104  00:00      0.175
  c_128_vr_storage_5       0.656    0.0    0.0    0.0       2.219    0.0     104  00:00      8.692
  c_1285_vr_storage_5      0.000    0.0    0.0    0.0       0.030    0.0     104  00:00      0.196
  c_127_vr_storage_5       0.008    0.0    0.0    0.0       1.089    0.0     122  20:00      6.399
  c_126_vr_storage_5       0.001    0.0    0.0    0.0       0.169    0.0     122  20:00      0.893
  c_125_vr_storage_5       0.000    0.0    0.0    0.0       0.039    0.0     122  20:00      0.256
  c_124_storage           41.611    0.4    0.0    0.0      64.710    0.6     181  23:51      0.014
  c_136_vr_storage_5       0.009    0.0    0.0    0.0       0.641    0.0     104  00:05      2.819
  c_135_vr_storage_5       0.001    0.0    0.0    0.0       0.101    0.0     104  00:00      0.666
  c_131_vr_storage_5       0.002    0.0    0.0    0.0       0.097    0.0     104  00:02      0.540
  c_130_vr_storage_5       0.000    0.0    0.0    0.0       0.016    0.0     104  00:00      0.106
  c_134_vr_storage_5       0.000    0.0    0.0    0.0       0.025    0.0     104  00:00      0.163
  c_132_vr_storage_5       0.000    0.0    0.0    0.0       0.012    0.0     104  00:00      0.076
  Aalst_gemaal             8.525    5.9    0.0    0.0     144.880  100.0      35  21:36      4.135
  pre_ontvangstkelder      0.052   17.9    0.0    0.0       0.246   84.8      51  08:41      3.029
  c_150_vr_storage_57      0.163    0.0    0.0    0.0      14.845    0.1      35  18:20      5.803
  c_123_vr_storage_40      0.063    0.0    0.0    0.0       6.043    0.1     104  00:18      3.047
  c_143_vr_storage_70      1.025    0.0    0.0    0.0      32.243    0.3      87  19:40      8.483
  c_147_vr_storage_4       0.000    0.0    0.0    0.0       0.014    0.0      87  19:00      0.092
  c_160_vr_storage_8       0.025    0.0    0.0    0.0       0.132    0.0      35  17:01      0.290
  c_145_vr_storage_4       0.000    0.0    0.0    0.0       0.004    0.0      87  19:00      0.024
  c_144_vr_storage_19      0.007    0.0    0.0    0.0       0.441    0.0      87  19:05      0.435
  c_142_vr_storage_35      0.046    0.0    0.0    0.0       2.618    0.0      87  19:10      1.444
  c_148_vr_storage_12      0.002    0.0    0.0    0.0       0.105    0.0      87  19:01      0.235
  c_149_vr_storage_17      0.003    0.0    0.0    0.0       0.250    0.0      87  19:03      0.341
  c_151_vr_storage_22      0.007    0.0    0.0    0.0       0.589    0.0      87  19:04      0.580
  c_161_vr_storage_32      0.025    0.0    0.0    0.0       4.060    0.0      35  17:10      2.690
  c_138_vr_storage_22      0.013    0.0    0.0    0.0       0.689    0.0      87  19:05      0.662
  c_139_vr_storage_8       0.000    0.0    0.0    0.0       0.044    0.0      87  19:01      0.097
  c_137_vr_storage_4       0.000    0.0    0.0    0.0       0.010    0.0      35  17:00      0.064
  c_122_vr_storage_29      0.024    0.0    0.0    0.0       3.024    0.0     104  00:04      1.953
  c_121_vr_storage_12      0.003    0.0    0.0    0.0       0.145    0.0      35  17:05      0.306
  c_120_vr_storage_8       0.001    0.0    0.0    0.0       0.053    0.0      87  19:01      0.119
  c_119_vr_storage_80      0.501    0.0    0.0    0.0      41.213    0.4     104  00:40     11.458
  c_100_vr_storage_10      0.001    0.0    0.0    0.0       0.057    0.0     104  00:00      0.127
  c_118_vr_storage_13      0.002    0.0    0.0    0.0       0.286    0.0     104  00:01      0.390
  c_116_vr_storage_15      0.004    0.0    0.0    0.0       0.444    0.0     104  00:03      0.572
  c_114_vr_storage_10      0.001    0.0    0.0    0.0       0.078    0.0     104  00:00      0.175
  c_112_vr_storage_21      0.007    0.0    0.0    0.0       1.032    0.0     104  00:00      0.987
  c_107_vr_storage_36      0.051    0.0    0.0    0.0       4.525    0.0      35  17:20      2.641
  c_107_2_vr_storage_12     0.001    0.0    0.0    0.0       0.115    0.0      35  17:02      0.262
  c_106_vr_storage_13      0.003    0.0    0.0    0.0       0.255    0.0      35  17:04      0.364
  c_99_vr_storage_41       0.061    0.0    0.0    0.0       4.748    0.0     104  00:09      2.262
  c_103_vr_storage_8       0.001    0.0    0.0    0.0       0.064    0.0      35  17:00      0.143
  c_98_vr_storage_20       0.008    0.0    0.0    0.0       0.622    0.0      35  17:06      0.631
  gb127                    0.344    1.8    0.0    0.0       9.822   52.8     122  20:05      5.443
  c_123                    0.183    0.6    0.0    0.0      17.155   57.2     104  04:40      0.284
  c_122                    1.227   12.3    0.0    0.0       7.998   80.0      93  00:30      0.912
  c_112                    0.046    2.3    0.0    0.0       1.739   87.0     104  00:20      0.987
  c_99                     0.035    0.2    0.0    0.0       9.753   48.8     104  03:05      0.556
  c_119_1                  0.231    2.3    0.0    0.0       5.109   51.1     104  01:25      4.583
  c_119_2                  0.106    1.1    0.0    0.0       7.083   70.8     104  01:25      3.205
  c_119_3                  0.194    1.0    0.0    0.0      20.000  100.0     104  03:51      0.389
  
  
  ***********************
  Outfall Loading Summary
  ***********************
  
  -----------------------------------------------------------
                         Flow       Avg       Max       Total
                         Freq      Flow      Flow      Volume
  Outfall Node           Pcnt       CMS       CMS    10^6 ltr
  -----------------------------------------------------------
  cso_Geldrop            0.40     1.003     6.173      63.521
  cso_gb_136             0.43     0.407     2.431      27.799
  cso_RZ                 0.00     0.000     0.000       0.000
  cso_ES_1               1.13     4.086    25.779     731.800
  cso_AALST              0.96     0.928     2.035     141.643
  out_ES                99.81     1.094     3.888   17365.239
  out_RZ               100.00     0.940     3.029   14939.499
  cso_gb127              0.94     0.724     5.127     108.744
  cso_c_122              0.78     0.120     0.881      14.850
  cso_c_119_1            1.43     0.515     4.340     116.805
  cso_c_112              0.45     0.146     0.926      10.420
  cso_c_99               0.00     0.000     0.000       0.000
  cso_c_123              0.00     0.000     0.000       0.000
  cso_c_119_2            0.23     0.526     2.865      19.578
  cso_c_119_3            0.00     0.000     0.000       0.000
  -----------------------------------------------------------
  System                13.77    10.489    34.416   33539.899
  
  
  ********************
  Link Flow Summary
  ********************
  
  -----------------------------------------------------------------------------
                                 Maximum  Time of Max   Maximum    Max/    Max/
                                  |Flow|   Occurrence   |Veloc|    Full    Full
  Link                 Type          CMS  days hr:min     m/sec    Flow   Depth
  -----------------------------------------------------------------------------
  Con_158              CONDUIT     0.446     0  00:28      0.90    0.01    0.99
  Con_159              CONDUIT     0.264     0  00:30      0.40    0.04    0.97
  Con_160              CONDUIT     0.315     0  00:00      1.02    0.02    0.98
  Con_101              CONDUIT     0.816     0  00:05      0.91    2.53    0.84
  Con_102              CONDUIT     0.592    49  14:17      0.67    1.30    0.77
  Con_103              CONDUIT     0.550    49  14:28      0.76    0.73    0.73
  Con_104              CONDUIT     0.547    49  14:35      1.49    0.55    0.70
  Con_105              CONDUIT     0.554    49  14:23      0.84    1.18    0.75
  Con_106              CONDUIT     0.572    49  14:16      0.86    0.74    0.87
  Con_107              CONDUIT     0.663   138  19:44      0.78    0.16    1.00
  Con_108              CONDUIT     0.981     0  00:01      1.30    0.22    1.00
  Con_109              CONDUIT     2.524   105  05:05      1.09    0.43    0.77
  Con_110              CONDUIT     2.531   105  05:04      1.20    0.39    0.84
  Con_157              CONDUIT     0.727     0  00:31      0.91    0.02    1.00
  Con_111              CONDUIT     2.556   105  05:05      0.80    0.45    1.00
  Con_112              CONDUIT     2.564   105  05:03      1.01    0.35    0.96
  Con_113              CONDUIT     2.602    88  20:52      1.20    0.60    1.00
  Con_114              CONDUIT     2.602    88  20:52      1.19    0.66    1.00
  Con_115              CONDUIT     2.602    88  21:40      1.17    0.63    1.00
  Con_116              CONDUIT     2.607   151  03:03      1.21    0.63    1.00
  Con_117              CONDUIT     5.784   151  02:18      2.12    0.38    1.00
  Con_118              CONDUIT     0.732    39  04:30      1.08    0.19    1.00
  Con_119              CONDUIT     0.786    39  04:34      0.87    0.16    1.00
  Con_120              CONDUIT     0.864    39  04:41      0.72    0.18    1.00
  Con_121              CONDUIT     0.946    39  05:03      0.75    0.19    1.00
  Con_122              CONDUIT     3.111    35  20:22      3.42    0.67    1.00
  Con_123              CONDUIT     5.166   123  00:52      6.34    0.06    1.00
  Con_125              CONDUIT     2.100   133  06:18      1.01    0.91    0.73
  Con_126              CONDUIT     2.115   109  00:09      1.06    1.45    0.74
  Con_127              CONDUIT     2.100   133  06:19      1.72    0.33    0.70
  Con_128              CONDUIT     2.522     0  00:04      1.56    1.06    0.69
  Con_129              CONDUIT     9.524     0  00:01      4.05    1.24    0.87
  Con_130              CONDUIT     7.085     0  00:05      1.79    1.49    0.71
  Con_140              CONDUIT     5.300     0  00:05      2.05    0.99    0.64
  Con_141              CONDUIT     4.544     0  00:06      1.60    0.95    0.61
  Con_142              CONDUIT     3.589     0  00:07      1.58    0.76    0.63
  Con_143              CONDUIT     3.296     0  00:09      1.75    0.69    0.65
  Con_144              CONDUIT     2.515   105  05:07      1.00    0.68    0.67
  Con_152              CONDUIT     2.714   151  02:51      1.08    1.02    1.00
  Con_153              CONDUIT     2.610    88  21:43      1.08    0.91    1.00
  Con_154              CONDUIT     2.610    88  21:43      1.14    1.02    1.00
  Con_155              CONDUIT     2.610    88  21:43      1.10    0.80    1.00
  Con_156              CONDUIT     2.610    88  21:43      1.39    0.71    1.00
  eeneind_out          CONDUIT     0.057   173  01:05      1.81    0.62    0.63
  P_c_24_d_5           PUMP       36.102    35  18:00              3.61
  P_c_23_d_7           PUMP        0.050    35  18:00              0.00
  P_c_22_d_5           PUMP        0.026    35  18:00              0.00
  P_c_21_d_7           PUMP        0.053    35  18:00              0.01
  P_c_12_d_8           PUMP        0.062    35  18:05              0.01
  P_c_20_d_13          PUMP        0.161    35  18:10              0.02
  P_c_19_d_7           PUMP        0.056    35  18:00              0.01
  P_c_10_d_10          PUMP        0.067    87  19:05              0.01
  P_c_16_d_20          PUMP        0.425    35  18:15              0.04
  P_c_15_d_24          PUMP        0.547    35  18:20              0.05
  P_c_14_d_24          PUMP        0.573    35  18:20              0.06
  P_c_129_d_5          PUMP        0.175   104  00:00              0.02
  P_c_128_d_5          PUMP        8.692   104  00:00              0.87
  P_c_1285_d_5         PUMP        0.196   104  00:00              0.02
  P_c_127_d_5          PUMP        6.399   122  20:00              0.64
  P_c_126_d_5          PUMP        0.893   122  20:00              0.09
  P_c_125_d_5          PUMP        0.256   122  20:00              0.03
  P_c_136_d_5          PUMP        2.819   104  00:05              0.28
  P_c_135_d_5          PUMP        0.666   104  00:00              0.07
  P_c_131_d_5          PUMP        0.540   104  00:00              0.05
  P_c_130_d_5          PUMP        0.106   104  00:00              0.01
  P_c_134_d_5          PUMP        0.163   104  00:00              0.02
  P_c_132_d_5          PUMP        0.076   104  00:00              0.01
  Con_1119.1           PUMP        0.191    17  18:30              1.00
  P_riool_zuid_out     PUMP        3.029    51  08:41              0.64
  P_eindhoven_out      PUMP        3.888    17  19:18              1.00
  P_c_150_d_57         PUMP        5.803    35  18:50              0.58
  P_c_123_d_40         PUMP        3.047   104  00:35              0.30
  P_c_143_d_70         PUMP        8.483    87  20:05              0.85
  P_c_147_d_4          PUMP        0.092    87  19:00              0.01
  P_c_160_d_8          PUMP        0.290    35  17:05              0.03
  P_c_145_d_4          PUMP        0.024    87  19:00              0.00
  P_c_144_d_19         PUMP        0.435    87  19:15              0.04
  P_c_142_d_35         PUMP        1.444    87  19:30              0.14
  P_c_148_d_12         PUMP        0.235    87  19:05              0.02
  P_c_149_d_17         PUMP        0.341    87  19:10              0.03
  P_c_151_d_22         PUMP        0.580    87  19:15              0.06
  P_c_161_d_32         PUMP        2.690    35  17:25              0.27
  P_c_138_d_22         PUMP        0.662    87  19:15              0.07
  P_c_139_d_8          PUMP        0.097    87  19:05              0.01
  P_c_137_d_4          PUMP        0.064    35  17:00              0.01
  P_c_122_d_29         PUMP        1.953   104  00:25              0.20
  P_c_121_d_12         PUMP        0.306    35  17:05              0.03
  P_c_120_d_8          PUMP        0.119    87  19:05              0.01
  P_c_119_d_80         PUMP       11.458   104  01:15              1.15
  P_c_100_d_10         PUMP        0.127   104  00:05              0.01
  P_c_118_d_13         PUMP        0.390   104  00:10              0.04
  P_c_116_d_15         PUMP        0.572   104  00:10              0.06
  P_c_114_d_10         PUMP        0.175   104  00:05              0.02
  P_c_112_d_21         PUMP        0.987   104  00:15              0.10
  P_c_107_d_36         PUMP        2.641    35  17:30              0.26
  P_c_107_2_d_12       PUMP        0.262    35  17:05              0.03
  P_c_106_d_13         PUMP        0.364    35  17:10              0.04
  P_c_99_d_41          PUMP        2.262   104  00:35              0.23
  P_c_103_d_8          PUMP        0.143    35  17:05              0.01
  P_c_98_d_20          PUMP        0.631    35  17:15              0.06
  P_aalst_1            PUMP        0.560     0  00:05              1.00
  P_aalst_2            PUMP        0.560     0  00:05              1.00
  P_aalst_3            PUMP        0.490     0  00:05              1.00
  P_aalst_4            PUMP        0.490     0  00:00              1.00
  P_pipe_Geldrop       PUMP        0.800     6  14:35              1.00
  P_gb127              PUMP        0.316     6  14:35              1.00
  P_c_99               PUMP        0.556    35  16:50              1.00
  P_c_112              PUMP        0.061     5  12:00              1.00
  P_c_119_1            PUMP        0.243     0  00:00              1.00
  P_c_122              PUMP        0.031     3  18:20              1.00
  P_c_123              PUMP        0.284    17  18:55              1.00
  P_c_119_2            PUMP        0.340     0  00:00              1.00
  P_c_119_3            PUMP        0.389     0  00:00              1.00
  P_c_119_fr_040       PUMP       10.000     0  00:00              1.00
  P_c_119_fr_028       PUMP       10.000     0  00:00              1.00
  P_c_119_fr_032       PUMP       10.000     0  00:00              1.00
  P_geldrop_split_1    PUMP       10.000     0  00:00              1.00
  P_geldrop_split_2    PUMP       10.000     0  00:00              1.00
  weir_gb_136          WEIR        2.431   104  00:20                      0.07
  Con_A*HLCMRZ1135.1   WEIR        0.000     0  00:00                      0.00
  weir_ES              WEIR       25.779    87  19:15                      0.36
  Aalst_weir           WEIR        2.035    35  21:37                      0.07
  weir_gb127           WEIR        5.127   122  20:05                      0.12
  weir_pipe_Geldrop    WEIR        6.173   104  00:20                      0.14
  weir_c_123           WEIR        0.000     0  00:00                      0.00
  weir_c_99            WEIR        0.000     0  00:00                      0.00
  weir_c_112           WEIR        0.926   104  00:20                      0.04
  weir_c_119_1         WEIR        4.340   104  01:25                      0.11
  weir_c_122           WEIR        0.881    93  00:30                      0.04
  weir_c_119_2         WEIR        2.865   104  01:25                      0.08
  weir_c_119_3         WEIR        0.000     0  00:00                      0.00
  
  
  ***************************
  Flow Classification Summary
  ***************************
  
  -------------------------------------------------------------------------------------
                      Adjusted    ---------- Fraction of Time in Flow Class ---------- 
                       /Actual         Up    Down  Sub   Sup   Up    Down  Norm  Inlet 
  Conduit               Length    Dry  Dry   Dry   Crit  Crit  Crit  Crit  Ltd   Ctrl  
  -------------------------------------------------------------------------------------
  Con_158                 1.00   0.00  0.00  0.00  1.00  0.00  0.00  0.00  0.00  0.00
  Con_159                 1.00   0.00  0.00  0.00  1.00  0.00  0.00  0.00  0.00  0.00
  Con_160                 1.00   0.00  0.00  0.00  1.00  0.00  0.00  0.00  0.00  0.00
  Con_101                 1.00   0.00  0.00  0.00  0.82  0.00  0.00  0.18  0.00  0.00
  Con_102                 1.00   0.00  0.00  0.00  1.00  0.00  0.00  0.00  0.00  0.00
  Con_103                 1.00   0.00  0.00  0.00  1.00  0.00  0.00  0.00  0.29  0.00
  Con_104                 1.00   0.00  0.00  0.00  1.00  0.00  0.00  0.00  0.00  0.00
  Con_105                 1.00   0.00  0.00  0.00  1.00  0.00  0.00  0.00  0.00  0.00
  Con_106                 1.00   0.00  0.00  0.00  0.08  0.00  0.00  0.92  0.03  0.00
  Con_107                 1.00   0.00  0.00  0.00  1.00  0.00  0.00  0.00  0.04  0.00
  Con_108                 1.00   0.00  0.00  0.00  1.00  0.00  0.00  0.00  0.78  0.00
  Con_109                 1.00   0.00  0.00  0.00  1.00  0.00  0.00  0.00  0.00  0.00
  Con_110                 1.00   0.00  0.00  0.00  1.00  0.00  0.00  0.00  0.00  0.00
  Con_157                 1.00   0.00  0.00  0.00  1.00  0.00  0.00  0.00  0.00  0.00
  Con_111                 1.00   0.00  0.00  0.00  1.00  0.00  0.00  0.00  0.00  0.00
  Con_112                 1.00   0.00  0.00  0.00  1.00  0.00  0.00  0.00  0.81  0.00
  Con_113                 1.00   0.00  0.00  0.00  1.00  0.00  0.00  0.00  0.00  0.00
  Con_114                 1.00   0.00  0.00  0.00  1.00  0.00  0.00  0.00  0.00  0.00
  Con_115                 1.00   0.00  0.00  0.00  1.00  0.00  0.00  0.00  0.68  0.00
  Con_116                 1.00   0.00  0.00  0.00  1.00  0.00  0.00  0.00  0.34  0.00
  Con_117                 1.00   0.00  0.00  0.00  1.00  0.00  0.00  0.00  0.13  0.00
  Con_118                 1.00   0.00  0.00  0.00  1.00  0.00  0.00  0.00  0.00  0.00
  Con_119                 1.00   0.00  0.00  0.00  1.00  0.00  0.00  0.00  0.77  0.00
  Con_120                 1.00   0.00  0.00  0.00  1.00  0.00  0.00  0.00  0.23  0.00
  Con_121                 1.00   0.00  0.00  0.00  1.00  0.00  0.00  0.00  0.00  0.00
  Con_122                 1.00   0.00  0.00  0.00  0.14  0.86  0.00  0.00  0.00  0.00
  Con_123                 1.00   0.00  0.00  0.00  0.43  0.29  0.00  0.28  0.58  0.00
  Con_125                 1.00   0.00  0.00  0.00  1.00  0.00  0.00  0.00  0.67  0.00
  Con_126                 1.00   0.00  0.00  0.00  1.00  0.00  0.00  0.00  0.00  0.00
  Con_127                 1.00   0.00  0.00  0.00  1.00  0.00  0.00  0.00  0.83  0.00
  Con_128                 1.00   0.00  0.00  0.00  0.00  0.00  0.00  1.00  0.00  0.00
  Con_129                 1.00   0.00  0.00  0.00  1.00  0.00  0.00  0.00  0.84  0.00
  Con_130                 1.00   0.00  0.00  0.00  1.00  0.00  0.00  0.00  0.01  0.00
  Con_140                 1.00   0.00  0.00  0.00  1.00  0.00  0.00  0.00  0.00  0.00
  Con_141                 1.00   0.00  0.00  0.00  1.00  0.00  0.00  0.00  0.18  0.00
  Con_142                 1.00   0.00  0.00  0.00  1.00  0.00  0.00  0.00  0.00  0.00
  Con_143                 1.00   0.00  0.00  0.00  1.00  0.00  0.00  0.00  0.00  0.00
  Con_144                 1.00   0.00  0.00  0.00  0.78  0.00  0.00  0.22  0.00  0.00
  Con_152                 1.00   0.00  0.00  0.00  1.00  0.00  0.00  0.00  0.17  0.00
  Con_153                 1.00   0.00  0.00  0.00  1.00  0.00  0.00  0.00  0.05  0.00
  Con_154                 1.00   0.00  0.00  0.00  1.00  0.00  0.00  0.00  0.00  0.00
  Con_155                 1.00   0.00  0.00  0.00  1.00  0.00  0.00  0.00  0.00  0.00
  Con_156                 1.00   0.00  0.00  0.00  1.00  0.00  0.00  0.00  0.00  0.00
  eeneind_out             1.00   0.00  0.00  0.00  0.90  0.10  0.00  0.00  0.87  0.00
  
  
  *************************
  Conduit Surcharge Summary
  *************************
  
  ----------------------------------------------------------------------------
                                                           Hours        Hours 
                         --------- Hours Full --------   Above Full   Capacity
  Conduit                Both Ends  Upstream  Dnstream   Normal Flow   Limited
  ----------------------------------------------------------------------------
  Con_158                     0.01      0.01     17.51      0.01         0.01
  Con_160                     0.01      0.01     62.96      0.01         0.01
  Con_101                     0.01    368.46      0.01    485.45         0.01
  Con_102                     0.01      0.01      0.01    392.97         0.01
  Con_105                     0.01      0.01      0.01    361.73         0.01
  Con_106                     0.01      0.01     51.72      0.01         0.01
  Con_107                   182.03    182.03    266.66      0.01         0.01
  Con_108                   266.66    266.66    290.15      0.01         0.01
  Con_157                    17.51     17.51     62.95      0.01         0.01
  Con_111                    62.95     62.95     73.98      0.01         0.01
  Con_112                     0.01      0.01     74.84      0.01         0.01
  Con_113                   145.36    145.36    157.06      0.01         0.01
  Con_114                   157.06    157.06    163.60      0.01         0.01
  Con_115                   163.60    163.60    235.40      0.01         0.01
  Con_116                   235.40    235.40    297.80      0.01         0.01
  Con_117                   275.28    275.28    699.32      0.01         0.01
  Con_118                   290.15    290.15    313.41      0.01         0.01
  Con_119                   313.41    313.41    350.97      0.01         0.01
  Con_120                   350.97    350.97    384.32      0.01         0.01
  Con_121                   384.32    384.32    395.73      0.01         0.01
  Con_122                   395.73    395.73    408.68      0.01         0.01
  Con_123                   408.68    408.68    904.25      0.01         0.01
  Con_126                     0.01      0.01      0.01    730.57         0.01
  Con_128                     0.01      0.01      0.01      0.03         0.01
  Con_129                     0.01      0.01      0.01      0.03         0.01
  Con_130                     0.01      0.01      0.01      0.06         0.01
  Con_152                   310.27    310.27    344.48      1.99         0.01
  Con_153                   344.48    344.48    351.74      0.01         0.01
  Con_154                   351.74    351.74    355.28      5.79         5.81
  Con_155                   355.28    355.28    370.64      0.01         0.01
  Con_156                   370.64    370.64    395.73      0.01         0.01
  eeneind_out                 0.01      0.01   3726.16      0.01         0.01
  
  
  ***************
  Pumping Summary
  ***************
  
  ---------------------------------------------------------------------------------------------------------
                                                  Min       Avg       Max     Total     Power    % Time Off
                        Percent   Number of      Flow      Flow      Flow    Volume     Usage    Pump Curve
  Pump                 Utilized   Start-Ups       CMS       CMS       CMS  10^6 ltr     Kw-hr    Low   High
  ---------------------------------------------------------------------------------------------------------
  P_c_24_d_5             100.00           1      0.00      1.14     36.10 18107.032  36322.22    0.0  100.0
  P_c_23_d_7             100.00           1      0.00      0.00      0.05    27.217      0.05    0.0  100.0
  P_c_22_d_5              28.56          42      0.00      0.00      0.03     5.857      0.02    0.0  100.0
  P_c_21_d_7             100.00           1      0.00      0.00      0.05    26.976      0.05    0.0  100.0
  P_c_12_d_8             100.00           1      0.00      0.00      0.06    38.869      0.06    0.0   99.9
  P_c_20_d_13             30.35          44      0.00      0.01      0.16    36.633      0.11    0.0   99.1
  P_c_19_d_7             100.00           1      0.00      0.00      0.06    24.626      0.05    0.0  100.0
  P_c_10_d_10             36.01          40      0.00      0.00      0.07    21.599      0.06    0.0   96.7
  P_c_16_d_20             30.70          45      0.00      0.02      0.42    96.713      0.28    0.0   98.9
  P_c_15_d_24            100.00           1      0.00      0.01      0.55   142.039      0.35    0.0   99.6
  P_c_14_d_24             30.74          45      0.00      0.03      0.57   130.416      0.36    0.0   98.8
  P_c_129_d_5             17.44          64      0.00      0.01      0.17    17.291      0.05    0.0  100.0
  P_c_128_d_5            100.00           1      0.00      0.20      8.69  3135.043 132831.62    0.0  100.0
  P_c_1285_d_5           100.00           1      0.00      0.00      0.20    27.283      0.07    0.0  100.0
  P_c_127_d_5            100.00           1      0.00      0.07      6.40  1072.789    740.96    0.0    8.4
  P_c_126_d_5            100.00           1      0.00      0.03      0.89   460.861      0.04    0.0   98.5
  P_c_125_d_5            100.00           1      0.00      0.00      0.26    24.335      0.00    0.0   99.5
  P_c_136_d_5            100.00           1      0.00      0.05      2.82   795.828  35966.51    0.0  100.0
  P_c_135_d_5            100.00           1      0.00      0.01      0.67   115.415      0.02    0.0  100.0
  P_c_131_d_5            100.00           1      0.00      0.01      0.54   139.894      0.02    0.0   99.7
  P_c_130_d_5            100.00           1      0.00      0.00      0.11    26.602      0.00    0.0  100.0
  P_c_134_d_5            100.00           1      0.00      0.00      0.16    26.531      0.00    0.0  100.0
  P_c_132_d_5            100.00           1      0.00      0.00      0.08    22.889      0.00    0.0  100.0
  Con_1119.1             100.00           1      0.00      0.05      0.19   768.036   2461.90    0.0    8.9
  P_riool_zuid_out       100.00           1      0.00      0.94      3.03 14939.501 394008.55    0.0    0.0
  P_eindhoven_out         99.81           1      0.00      1.09      3.89 17365.240  31008.55    0.0    0.0
  P_c_150_d_57           100.00           1      0.00      0.06      5.80  1006.720   2933.59    0.0   99.1
  P_c_123_d_40           100.00           1      0.00      0.03      3.05   469.074   2244.88    0.0    5.2
  P_c_143_d_70           100.00           1      0.00      0.28      8.48  4382.433   9945.23    0.0   99.0
  P_c_147_d_4             19.04          60      0.00      0.01      0.09    15.186      0.32    0.0  100.0
  P_c_160_d_8            100.00           1      0.00      0.05      0.29   827.984      3.00    0.0  100.0
  P_c_145_d_4            100.00           1      0.00      0.00      0.02    14.242      0.11    0.0  100.0
  P_c_144_d_19           100.00           1      0.00      0.01      0.43   105.628      1.84    0.0  100.0
  P_c_142_d_35           100.00           1      0.00      0.02      1.44   394.511      6.12    0.0  100.0
  P_c_148_d_12           100.00           1      0.00      0.00      0.23    53.702      0.91    0.0  100.0
  P_c_149_d_17            23.25          50      0.00      0.02      0.34    63.308      1.39    0.0  100.0
  P_c_151_d_22           100.00           1      0.00      0.01      0.58   113.335      2.32    0.0  100.0
  P_c_161_d_32            24.19          52      0.00      0.06      2.69   240.883      5.30    0.0  100.0
  P_c_138_d_22           100.00           1      0.00      0.01      0.66   207.671      2.96    0.0  100.0
  P_c_139_d_8             19.36          62      0.00      0.01      0.10    16.215      0.01    0.0  100.0
  P_c_137_d_4            100.00           1      0.00      0.00      0.06    31.099      0.00    0.0   99.9
  P_c_122_d_29           100.00           1      0.00      0.02      1.95   242.209   1968.64    0.0   35.7
  P_c_121_d_12           100.00           1      0.00      0.01      0.31   192.077    286.63    0.0   99.1
  P_c_120_d_8            100.00           1      0.00      0.00      0.12    34.819      0.00    0.0   99.9
  P_c_119_d_80           100.00           1      0.00      0.11     11.46  1803.411 20607604.14    0.0   99.6
  P_c_100_d_10           100.00           1      0.00      0.00      0.13    28.388      0.37    0.0  100.0
  P_c_118_d_13            17.28          67      0.00      0.01      0.39    36.860      0.80    0.0  100.0
  P_c_116_d_15           100.00           1      0.00      0.01      0.57    89.337    217.97    0.0   99.1
  P_c_114_d_10           100.00           1      0.00      0.00      0.17    29.729      0.00    0.0  100.0
  P_c_112_d_21           100.00           1      0.00      0.01      0.99   113.742    170.21    0.0    6.7
  P_c_107_d_36           100.00           1      0.00      0.16      2.64  2479.812   2847.48    0.0   99.1
  P_c_107_2_d_12         100.00           1      0.00      0.00      0.26    32.956      0.06    0.0  100.0
  P_c_106_d_13           100.00           1      0.00      0.01      0.36   225.017      0.10    0.0  100.0
  P_c_99_d_41            100.00           1      0.00      0.03      2.26   449.085    842.53    0.0    1.5
  P_c_103_d_8            100.00           1      0.00      0.00      0.14    21.450      0.03    0.0  100.0
  P_c_98_d_20            100.00           1      0.00      0.01      0.63   120.865    290.27    0.0   99.1
  P_aalst_1               21.24        2306      0.00      0.56      0.56  1880.566  92401.15    0.0   96.1
  P_aalst_2               17.63         831      0.00      0.56      0.56  1567.654  76563.37    0.0   98.0
  P_aalst_3               16.82         488      0.00      0.49      0.49  1309.047  63795.61    0.0   98.9
  P_aalst_4              100.00           1      0.00      0.40      0.49  6347.293 318037.25    0.0   99.1
  P_pipe_Geldrop         100.00           1      0.00      0.19      0.80  3071.569  18720.40    0.0    9.8
  P_gb127                100.00           1      0.00      0.06      0.32   964.065    469.60    0.0    8.5
  P_c_99                 100.00           1      0.00      0.03      0.56   449.098   1359.06    0.0    1.5
  P_c_112                100.00           1      0.00      0.01      0.06   103.326    192.68    0.0    6.7
  P_c_119_1              100.00          26      0.00      0.04      0.24   607.576   1642.42    0.0  100.0
  P_c_122                100.00           1      0.00      0.01      0.03   227.333   1340.27    0.0   35.7
  P_c_123                100.00           1      0.00      0.03      0.28   469.087   1866.83    0.0    5.2
  P_c_119_2              100.00          16      0.00      0.03      0.34   488.395   1473.53    0.0  100.0
  P_c_119_3              100.00          14      0.00      0.04      0.39   578.656   2910.85    0.0  100.0
  P_c_119_fr_040         100.00           1      0.00      0.05     10.00   724.350 8239041.22    0.0    0.4
  P_c_119_fr_028         100.00           1      0.00      0.03     10.00   507.945 5768217.89    0.0    0.4
  P_c_119_fr_032         100.00           1      0.00      0.04     10.00   580.080 6591125.05    0.0    0.4
  P_geldrop_split_1      100.00           1      0.00      0.10     10.00  1537.644  10076.79    0.0   50.7
  P_geldrop_split_2      100.00           1      0.00      0.10     10.00  1537.644   9828.12    0.0   10.3
  

  Analysis begun on:  Wed May 28 11:08:42 2025
  Analysis ended on:  Wed May 28 11:27:53 2025
  Total elapsed time: 00:19:11